Circuit: * C:\Users\Daniel Hoefer\Documents\Toyota Satoshi Emblem\GitHub\FIC Board\FIC Board\LTSpice\Draft6.asc

Direct Newton iteration failed to find .op point.  (Use ".option noopiter" to skip.)
Starting Gmin stepping
Gmin = 10
Gmin = 1.07374
Gmin = 0.115292
Gmin = 0.0123794
Gmin = 0.00132923
Gmin = 0.000142725
Gmin = 1.5325e-05
Gmin = 1.6455e-06
Gmin = 1.76685e-07
Gmin = 1.89714e-08
Gmin = 2.03704e-09
Gmin = 2.18725e-10
Gmin = 2.34854e-11
Gmin = 2.52173e-12
Gmin = 2.70769e-13
Gmin = 0
Gmin stepping succeeded in finding the operating point.

Heightened Def Con from 0.000400056 to 0.000400057
Heightened Def Con from 0.00139879 to 0.00139879
Heightened Def Con from 0.00239881 to 0.00239881
Heightened Def Con from 0.00339856 to 0.00339856
Heightened Def Con from 0.00440097 to 0.00440097
Heightened Def Con from 0.00639875 to 0.00639875
Heightened Def Con from 0.00739959 to 0.00739959
Heightened Def Con from 0.00839871 to 0.00839871
Heightened Def Con from 0.010399 to 0.010399
Heightened Def Con from 0.011399 to 0.011399
Heightened Def Con from 0.0133986 to 0.0133986
Heightened Def Con from 0.0144 to 0.0144
Heightened Def Con from 0.0153988 to 0.0153988
Heightened Def Con from 0.0174061 to 0.0174061
Heightened Def Con from 0.0193983 to 0.0193983
Heightened Def Con from 0.0203991 to 0.0203991
Heightened Def Con from 0.0213988 to 0.0213988
Heightened Def Con from 0.0224004 to 0.0224004
Heightened Def Con from 0.0234001 to 0.0234001
Heightened Def Con from 0.0244004 to 0.0244004
Heightened Def Con from 0.0263989 to 0.0263989
Heightened Def Con from 0.0273997 to 0.0273997
Heightened Def Con from 0.0284 to 0.0284
Heightened Def Con from 0.0293991 to 0.0293991
Heightened Def Con from 0.0303986 to 0.0303986
Heightened Def Con from 0.0313992 to 0.0313992
Heightened Def Con from 0.0324003 to 0.0324003
Heightened Def Con from 0.0334001 to 0.0334001
Heightened Def Con from 0.0344001 to 0.0344001
Heightened Def Con from 0.0384001 to 0.0384001
Heightened Def Con from 0.0413982 to 0.0413982
Heightened Def Con from 0.0423982 to 0.0423982
Heightened Def Con from 0.0434007 to 0.0434007
Heightened Def Con from 0.0443989 to 0.0443989
Heightened Def Con from 0.0453985 to 0.0453985
Heightened Def Con from 0.0464001 to 0.0464001
Heightened Def Con from 0.0484004 to 0.0484004
Heightened Def Con from 0.0504 to 0.0504
Heightened Def Con from 0.0523987 to 0.0523987
Heightened Def Con from 0.0533989 to 0.0533989
Heightened Def Con from 0.0544009 to 0.0544009
Heightened Def Con from 0.0553988 to 0.0553988
Heightened Def Con from 0.0563987 to 0.0563987
Heightened Def Con from 0.0574007 to 0.0574007
Heightened Def Con from 0.0583992 to 0.0583992
Heightened Def Con from 0.0594003 to 0.0594003
Heightened Def Con from 0.0603992 to 0.0603992
Heightened Def Con from 0.0614002 to 0.0614002
Heightened Def Con from 0.0623986 to 0.0623986
Heightened Def Con from 0.0633988 to 0.0633988
Heightened Def Con from 0.0654001 to 0.0654001
Heightened Def Con from 0.0663988 to 0.0663988
Heightened Def Con from 0.0684004 to 0.0684004
Heightened Def Con from 0.0693989 to 0.0693989
Heightened Def Con from 0.0703991 to 0.0703991
Heightened Def Con from 0.0724 to 0.0724
Heightened Def Con from 0.0743991 to 0.0743991
Heightened Def Con from 0.0753994 to 0.0753994
Heightened Def Con from 0.0764 to 0.0764
Heightened Def Con from 0.0804001 to 0.0804001
Heightened Def Con from 0.0814 to 0.0814
Heightened Def Con from 0.0823988 to 0.0823988
Heightened Def Con from 0.0844003 to 0.0844003
Heightened Def Con from 0.0854004 to 0.0854004
Heightened Def Con from 0.0864027 to 0.0864027
Heightened Def Con from 0.0873988 to 0.0873988
Heightened Def Con from 0.0893989 to 0.0893989
Heightened Def Con from 0.0934062 to 0.0934062
Heightened Def Con from 0.0964027 to 0.0964027
Heightened Def Con from 0.0973988 to 0.0973988
Heightened Def Con from 0.0984008 to 0.0984008
Heightened Def Con from 0.100399 to 0.100399
Heightened Def Con from 0.101402 to 0.101402
Heightened Def Con from 0.102399 to 0.102399
Heightened Def Con from 0.1034 to 0.1034
Heightened Def Con from 0.104399 to 0.104399
Heightened Def Con from 0.105399 to 0.105399
Heightened Def Con from 0.106401 to 0.106401
Heightened Def Con from 0.1074 to 0.1074
Heightened Def Con from 0.1084 to 0.1084
Heightened Def Con from 0.1094 to 0.1094
Heightened Def Con from 0.110399 to 0.110399
Heightened Def Con from 0.1114 to 0.1114
Heightened Def Con from 0.112399 to 0.112399
Heightened Def Con from 0.113399 to 0.113399
Heightened Def Con from 0.114399 to 0.114399
Heightened Def Con from 0.1154 to 0.1154
Heightened Def Con from 0.1164 to 0.1164
Heightened Def Con from 0.117399 to 0.117399
Heightened Def Con from 0.119399 to 0.119399
Heightened Def Con from 0.121399 to 0.121399
Heightened Def Con from 0.123399 to 0.123399
Heightened Def Con from 0.1244 to 0.1244
Heightened Def Con from 0.125399 to 0.125399
Heightened Def Con from 0.127399 to 0.127399
Heightened Def Con from 0.1294 to 0.1294
Heightened Def Con from 0.131399 to 0.131399
Heightened Def Con from 0.1324 to 0.1324
Heightened Def Con from 0.133399 to 0.133399
Heightened Def Con from 0.135399 to 0.135399
Heightened Def Con from 0.137399 to 0.137399
Heightened Def Con from 0.1384 to 0.1384
Heightened Def Con from 0.139399 to 0.139399
Heightened Def Con from 0.1404 to 0.1404
Heightened Def Con from 0.143399 to 0.143399
Heightened Def Con from 0.1444 to 0.1444
Heightened Def Con from 0.145399 to 0.145399
Heightened Def Con from 0.1464 to 0.1464
Heightened Def Con from 0.1474 to 0.1474
Heightened Def Con from 0.1504 to 0.1504
Heightened Def Con from 0.151402 to 0.151402
Heightened Def Con from 0.1524 to 0.1524
Heightened Def Con from 0.1534 to 0.1534
Heightened Def Con from 0.155401 to 0.155401
Heightened Def Con from 0.156401 to 0.156401
Heightened Def Con from 0.159399 to 0.159399
Heightened Def Con from 0.1634 to 0.1634
Heightened Def Con from 0.164399 to 0.164399
Heightened Def Con from 0.165401 to 0.165401
Heightened Def Con from 0.167402 to 0.167402
Heightened Def Con from 0.168399 to 0.168399
Heightened Def Con from 0.1704 to 0.1704
Heightened Def Con from 0.171402 to 0.171402
Heightened Def Con from 0.1724 to 0.1724
Heightened Def Con from 0.173399 to 0.173399
Heightened Def Con from 0.1744 to 0.1744
Heightened Def Con from 0.1754 to 0.1754
Heightened Def Con from 0.176401 to 0.176401
Heightened Def Con from 0.177399 to 0.177399
Heightened Def Con from 0.1784 to 0.1784
Heightened Def Con from 0.179399 to 0.179399
Heightened Def Con from 0.1804 to 0.1804
Heightened Def Con from 0.181399 to 0.181399
Heightened Def Con from 0.182399 to 0.182399
Heightened Def Con from 0.184399 to 0.184399
Heightened Def Con from 0.186399 to 0.186399
Heightened Def Con from 0.187406 to 0.187406
Heightened Def Con from 0.188399 to 0.188399
Heightened Def Con from 0.189399 to 0.189399
Heightened Def Con from 0.190401 to 0.190401
Heightened Def Con from 0.191399 to 0.191399
Heightened Def Con from 0.192399 to 0.192399
Heightened Def Con from 0.193403 to 0.193403
Heightened Def Con from 0.195399 to 0.195399
Heightened Def Con from 0.197399 to 0.197399
Heightened Def Con from 0.2024 to 0.2024
Heightened Def Con from 0.203399 to 0.203399
Heightened Def Con from 0.2044 to 0.2044
Heightened Def Con from 0.205406 to 0.205406
Heightened Def Con from 0.2064 to 0.2064
Heightened Def Con from 0.207399 to 0.207399
Heightened Def Con from 0.2094 to 0.2094
Heightened Def Con from 0.2114 to 0.2114
Heightened Def Con from 0.213399 to 0.213399
Heightened Def Con from 0.2154 to 0.2154
Heightened Def Con from 0.2174 to 0.2174
Heightened Def Con from 0.218399 to 0.218399
Heightened Def Con from 0.222402 to 0.222402
Heightened Def Con from 0.223399 to 0.223399
Heightened Def Con from 0.225399 to 0.225399
Heightened Def Con from 0.2264 to 0.2264
Heightened Def Con from 0.227399 to 0.227399
Heightened Def Con from 0.2294 to 0.2294
Heightened Def Con from 0.230401 to 0.230401
Heightened Def Con from 0.231399 to 0.231399
Heightened Def Con from 0.2324 to 0.2324
Heightened Def Con from 0.2334 to 0.2334
Heightened Def Con from 0.2344 to 0.2344
Heightened Def Con from 0.2354 to 0.2354
Heightened Def Con from 0.237399 to 0.237399
Heightened Def Con from 0.2384 to 0.2384
Heightened Def Con from 0.239401 to 0.239401
Heightened Def Con from 0.241406 to 0.241406
Heightened Def Con from 0.2424 to 0.2424
Heightened Def Con from 0.243399 to 0.243399
Heightened Def Con from 0.244399 to 0.244399
Heightened Def Con from 0.245401 to 0.245401
Heightened Def Con from 0.246399 to 0.246399
Heightened Def Con from 0.2474 to 0.2474
Heightened Def Con from 0.248398 to 0.248398
Heightened Def Con from 0.251399 to 0.251399
Heightened Def Con from 0.252399 to 0.252399
Heightened Def Con from 0.255402 to 0.255402
Heightened Def Con from 0.2574 to 0.2574
Heightened Def Con from 0.2584 to 0.2584
Heightened Def Con from 0.259399 to 0.259399
Heightened Def Con from 0.261401 to 0.261401
Heightened Def Con from 0.263399 to 0.263399
Heightened Def Con from 0.264403 to 0.264403
Heightened Def Con from 0.2654 to 0.2654
Heightened Def Con from 0.266399 to 0.266399
Heightened Def Con from 0.267399 to 0.267399
Heightened Def Con from 0.269399 to 0.269399
Heightened Def Con from 0.270401 to 0.270401
Heightened Def Con from 0.2714 to 0.2714
Heightened Def Con from 0.272401 to 0.272401
Heightened Def Con from 0.2734 to 0.2734
Heightened Def Con from 0.274399 to 0.274399
Heightened Def Con from 0.275399 to 0.275399
Heightened Def Con from 0.276399 to 0.276399
Heightened Def Con from 0.279402 to 0.279402
Heightened Def Con from 0.280401 to 0.280401
Heightened Def Con from 0.2814 to 0.2814
Heightened Def Con from 0.282401 to 0.282401
Heightened Def Con from 0.283399 to 0.283399
Heightened Def Con from 0.285399 to 0.285399
Heightened Def Con from 0.2864 to 0.2864
Heightened Def Con from 0.287401 to 0.287401
Heightened Def Con from 0.288399 to 0.288399
Heightened Def Con from 0.294399 to 0.294399
Heightened Def Con from 0.295399 to 0.295399
Heightened Def Con from 0.2964 to 0.2964
Heightened Def Con from 0.297399 to 0.297399
Heightened Def Con from 0.2984 to 0.2984
Heightened Def Con from 0.2994 to 0.2994
Heightened Def Con from 0.300399 to 0.300399
Heightened Def Con from 0.301406 to 0.301406
Heightened Def Con from 0.303402 to 0.303402
Heightened Def Con from 0.3044 to 0.3044
Heightened Def Con from 0.306399 to 0.306399
Heightened Def Con from 0.307399 to 0.307399
Heightened Def Con from 0.309401 to 0.309401
Heightened Def Con from 0.310399 to 0.310399
Heightened Def Con from 0.3114 to 0.3114
Heightened Def Con from 0.3124 to 0.3124
Heightened Def Con from 0.3144 to 0.3144
Heightened Def Con from 0.315399 to 0.315399
Heightened Def Con from 0.3164 to 0.3164
Heightened Def Con from 0.317399 to 0.317399
Heightened Def Con from 0.3184 to 0.3184
Heightened Def Con from 0.319399 to 0.319399
Heightened Def Con from 0.3204 to 0.3204
Heightened Def Con from 0.3224 to 0.3224
Heightened Def Con from 0.323399 to 0.323399
Heightened Def Con from 0.3244 to 0.3244
Heightened Def Con from 0.325399 to 0.325399
Heightened Def Con from 0.326406 to 0.326406
Heightened Def Con from 0.3284 to 0.3284
Heightened Def Con from 0.3294 to 0.3294
Heightened Def Con from 0.3304 to 0.3304
Heightened Def Con from 0.331399 to 0.331399
Heightened Def Con from 0.333399 to 0.333399
Heightened Def Con from 0.336402 to 0.336402
Heightened Def Con from 0.3374 to 0.3374
Heightened Def Con from 0.338399 to 0.338399
Heightened Def Con from 0.3394 to 0.3394
Heightened Def Con from 0.340401 to 0.340401
Heightened Def Con from 0.341399 to 0.341399
Heightened Def Con from 0.3424 to 0.3424
Heightened Def Con from 0.343399 to 0.343399
Heightened Def Con from 0.344402 to 0.344402
Heightened Def Con from 0.345399 to 0.345399
Heightened Def Con from 0.3464 to 0.3464
Heightened Def Con from 0.347399 to 0.347399
Heightened Def Con from 0.3484 to 0.3484
Heightened Def Con from 0.349402 to 0.349402
Heightened Def Con from 0.3504 to 0.3504
Heightened Def Con from 0.3514 to 0.3514
Heightened Def Con from 0.356399 to 0.356399
Heightened Def Con from 0.357401 to 0.357401
Heightened Def Con from 0.3584 to 0.3584
Heightened Def Con from 0.3594 to 0.3594
Heightened Def Con from 0.360399 to 0.360399
Heightened Def Con from 0.361401 to 0.361401
Heightened Def Con from 0.362401 to 0.362401
Heightened Def Con from 0.3634 to 0.3634
Heightened Def Con from 0.364399 to 0.364399
Heightened Def Con from 0.365399 to 0.365399
Heightened Def Con from 0.366401 to 0.366401
Heightened Def Con from 0.3674 to 0.3674
Heightened Def Con from 0.3684 to 0.3684
Heightened Def Con from 0.371399 to 0.371399
Heightened Def Con from 0.3724 to 0.3724
Heightened Def Con from 0.373402 to 0.373402
Heightened Def Con from 0.3744 to 0.3744
Heightened Def Con from 0.3764 to 0.3764
Heightened Def Con from 0.3774 to 0.3774
Heightened Def Con from 0.378399 to 0.378399
Heightened Def Con from 0.3794 to 0.3794
Heightened Def Con from 0.380399 to 0.380399
Heightened Def Con from 0.382399 to 0.382399
Heightened Def Con from 0.383399 to 0.383399
Heightened Def Con from 0.384399 to 0.384399
Heightened Def Con from 0.385399 to 0.385399
Heightened Def Con from 0.387401 to 0.387401
Heightened Def Con from 0.388401 to 0.388401
Heightened Def Con from 0.390399 to 0.390399
Heightened Def Con from 0.391401 to 0.391401
Heightened Def Con from 0.3934 to 0.3934
Heightened Def Con from 0.3964 to 0.3964
Heightened Def Con from 0.397406 to 0.397406
Heightened Def Con from 0.399399 to 0.399399
Heightened Def Con from 0.400399 to 0.400399
Heightened Def Con from 0.4014 to 0.4014
Heightened Def Con from 0.4024 to 0.4024
Heightened Def Con from 0.403399 to 0.403399
Heightened Def Con from 0.4044 to 0.4044
Heightened Def Con from 0.405401 to 0.405401
Heightened Def Con from 0.406399 to 0.406399
Heightened Def Con from 0.4084 to 0.4084
Heightened Def Con from 0.409399 to 0.409399
Heightened Def Con from 0.4104 to 0.4104
Heightened Def Con from 0.411402 to 0.411402
Heightened Def Con from 0.412399 to 0.412399
Heightened Def Con from 0.4134 to 0.4134
Heightened Def Con from 0.4144 to 0.4144
Heightened Def Con from 0.4154 to 0.4154
Heightened Def Con from 0.416401 to 0.416401
Heightened Def Con from 0.4184 to 0.4184
Heightened Def Con from 0.4214 to 0.4214
Heightened Def Con from 0.422399 to 0.422399
Heightened Def Con from 0.423399 to 0.423399
Heightened Def Con from 0.425399 to 0.425399
Heightened Def Con from 0.4274 to 0.4274
Heightened Def Con from 0.428399 to 0.428399
Heightened Def Con from 0.429399 to 0.429399
Heightened Def Con from 0.4314 to 0.4314
Heightened Def Con from 0.432399 to 0.432399
Heightened Def Con from 0.4344 to 0.4344
Heightened Def Con from 0.437399 to 0.437399
Heightened Def Con from 0.438399 to 0.438399
Heightened Def Con from 0.4394 to 0.4394
Heightened Def Con from 0.4424 to 0.4424
Heightened Def Con from 0.443403 to 0.443403
Heightened Def Con from 0.444399 to 0.444399
Heightened Def Con from 0.4454 to 0.4454
Heightened Def Con from 0.447399 to 0.447399
Heightened Def Con from 0.450399 to 0.450399
Heightened Def Con from 0.453403 to 0.453403
Heightened Def Con from 0.4544 to 0.4544
Heightened Def Con from 0.455399 to 0.455399
Heightened Def Con from 0.456401 to 0.456401
Heightened Def Con from 0.457406 to 0.457406
Heightened Def Con from 0.4594 to 0.4594
Heightened Def Con from 0.4604 to 0.4604
Heightened Def Con from 0.4614 to 0.4614
Heightened Def Con from 0.4624 to 0.4624
Heightened Def Con from 0.464399 to 0.464399
Heightened Def Con from 0.4654 to 0.4654
Heightened Def Con from 0.466401 to 0.466401
Heightened Def Con from 0.4674 to 0.4674
Heightened Def Con from 0.4684 to 0.4684
Heightened Def Con from 0.469401 to 0.469401
Heightened Def Con from 0.4704 to 0.4704
Heightened Def Con from 0.472406 to 0.472406
Heightened Def Con from 0.473399 to 0.473399
Heightened Def Con from 0.474402 to 0.474402
Heightened Def Con from 0.4754 to 0.4754
Heightened Def Con from 0.476401 to 0.476401
Heightened Def Con from 0.4774 to 0.4774
Heightened Def Con from 0.478399 to 0.478399
Heightened Def Con from 0.480403 to 0.480403
Heightened Def Con from 0.481401 to 0.481401
Heightened Def Con from 0.4834 to 0.4834
Heightened Def Con from 0.4844 to 0.4844
Heightened Def Con from 0.485399 to 0.485399
Heightened Def Con from 0.4864 to 0.4864
Heightened Def Con from 0.4874 to 0.4874
Heightened Def Con from 0.488401 to 0.488401
Heightened Def Con from 0.489399 to 0.489399
Heightened Def Con from 0.490399 to 0.490399
Heightened Def Con from 0.491399 to 0.491399
Heightened Def Con from 0.492399 to 0.492399
Heightened Def Con from 0.493399 to 0.493399
Heightened Def Con from 0.4944 to 0.4944
Heightened Def Con from 0.495402 to 0.495402
Heightened Def Con from 0.4964 to 0.4964
Heightened Def Con from 0.497401 to 0.497401
Heightened Def Con from 0.4984 to 0.4984
Heightened Def Con from 0.5014 to 0.5014
Heightened Def Con from 0.502399 to 0.502399
Heightened Def Con from 0.503399 to 0.503399
Heightened Def Con from 0.504399 to 0.504399
Heightened Def Con from 0.5054 to 0.5054
Heightened Def Con from 0.5064 to 0.5064
Heightened Def Con from 0.508399 to 0.508399
Heightened Def Con from 0.5094 to 0.5094
Heightened Def Con from 0.510401 to 0.510401
Heightened Def Con from 0.5114 to 0.5114
Heightened Def Con from 0.512399 to 0.512399
Heightened Def Con from 0.514401 to 0.514401
Heightened Def Con from 0.5154 to 0.5154
Heightened Def Con from 0.5164 to 0.5164
Heightened Def Con from 0.517399 to 0.517399
Heightened Def Con from 0.518399 to 0.518399
Heightened Def Con from 0.5194 to 0.5194
Heightened Def Con from 0.520401 to 0.520401
Heightened Def Con from 0.521399 to 0.521399
Heightened Def Con from 0.522399 to 0.522399
Heightened Def Con from 0.523399 to 0.523399
Heightened Def Con from 0.5254 to 0.5254
Heightened Def Con from 0.526399 to 0.526399
Heightened Def Con from 0.5274 to 0.5274
Heightened Def Con from 0.528399 to 0.528399
Heightened Def Con from 0.5294 to 0.5294
Heightened Def Con from 0.530401 to 0.530401
Heightened Def Con from 0.5314 to 0.5314
Heightened Def Con from 0.5324 to 0.5324
Heightened Def Con from 0.533399 to 0.533399
Heightened Def Con from 0.534399 to 0.534399
Heightened Def Con from 0.535401 to 0.535401
Heightened Def Con from 0.5364 to 0.5364
Heightened Def Con from 0.5374 to 0.5374
Heightened Def Con from 0.538401 to 0.538401
Heightened Def Con from 0.539399 to 0.539399
Heightened Def Con from 0.540403 to 0.540403
Heightened Def Con from 0.541399 to 0.541399
Heightened Def Con from 0.5424 to 0.5424
Heightened Def Con from 0.543401 to 0.543401
Heightened Def Con from 0.544399 to 0.544399
Heightened Def Con from 0.5454 to 0.5454
Heightened Def Con from 0.5474 to 0.5474
Heightened Def Con from 0.5494 to 0.5494
Heightened Def Con from 0.550399 to 0.550399
Heightened Def Con from 0.5514 to 0.5514
Heightened Def Con from 0.5524 to 0.5524
Heightened Def Con from 0.553399 to 0.553399
Heightened Def Con from 0.555399 to 0.555399
Heightened Def Con from 0.5564 to 0.5564
Heightened Def Con from 0.557402 to 0.557402
Heightened Def Con from 0.558399 to 0.558399
Heightened Def Con from 0.559401 to 0.559401
Heightened Def Con from 0.5604 to 0.5604
Heightened Def Con from 0.562399 to 0.562399
Heightened Def Con from 0.563406 to 0.563406
Heightened Def Con from 0.565399 to 0.565399
Heightened Def Con from 0.566402 to 0.566402
Heightened Def Con from 0.567399 to 0.567399
Heightened Def Con from 0.568402 to 0.568402
Heightened Def Con from 0.569399 to 0.569399
Heightened Def Con from 0.570399 to 0.570399
Heightened Def Con from 0.571406 to 0.571406
Heightened Def Con from 0.573401 to 0.573401
Heightened Def Con from 0.575399 to 0.575399
Heightened Def Con from 0.5764 to 0.5764
Heightened Def Con from 0.577399 to 0.577399
Heightened Def Con from 0.578402 to 0.578402
Heightened Def Con from 0.5794 to 0.5794
Heightened Def Con from 0.581399 to 0.581399
Heightened Def Con from 0.583403 to 0.583403
Heightened Def Con from 0.586399 to 0.586399
Heightened Def Con from 0.587401 to 0.587401
Heightened Def Con from 0.5884 to 0.5884
Heightened Def Con from 0.5894 to 0.5894
Heightened Def Con from 0.591399 to 0.591399
Heightened Def Con from 0.5934 to 0.5934
Heightened Def Con from 0.5944 to 0.5944
Heightened Def Con from 0.595402 to 0.595402
Heightened Def Con from 0.5984 to 0.5984
Heightened Def Con from 0.599399 to 0.599399
Heightened Def Con from 0.6014 to 0.6014
Heightened Def Con from 0.6034 to 0.6034
Heightened Def Con from 0.605401 to 0.605401
Heightened Def Con from 0.606398 to 0.606398
Heightened Def Con from 0.607399 to 0.607399
Heightened Def Con from 0.6084 to 0.6084
Heightened Def Con from 0.609399 to 0.609399
Heightened Def Con from 0.6104 to 0.6104
Heightened Def Con from 0.6114 to 0.6114
Heightened Def Con from 0.612401 to 0.612401
Heightened Def Con from 0.613399 to 0.613399
Heightened Def Con from 0.614399 to 0.614399
Heightened Def Con from 0.615399 to 0.615399
Heightened Def Con from 0.616406 to 0.616406
Heightened Def Con from 0.6174 to 0.6174
Heightened Def Con from 0.618398 to 0.618398
Heightened Def Con from 0.619399 to 0.619399
Heightened Def Con from 0.620401 to 0.620401
Heightened Def Con from 0.6214 to 0.6214
Heightened Def Con from 0.622399 to 0.622399
Heightened Def Con from 0.6234 to 0.6234
Heightened Def Con from 0.6244 to 0.6244
Heightened Def Con from 0.6264 to 0.6264
Heightened Def Con from 0.6274 to 0.6274
Heightened Def Con from 0.6294 to 0.6294
Heightened Def Con from 0.6304 to 0.6304
Heightened Def Con from 0.631399 to 0.631399
Heightened Def Con from 0.632401 to 0.632401
Heightened Def Con from 0.6334 to 0.6334
Heightened Def Con from 0.6344 to 0.6344
Heightened Def Con from 0.635402 to 0.635402
Heightened Def Con from 0.636399 to 0.636399
Heightened Def Con from 0.6374 to 0.6374
Heightened Def Con from 0.638402 to 0.638402
Heightened Def Con from 0.6394 to 0.6394
Heightened Def Con from 0.6424 to 0.6424
Heightened Def Con from 0.644399 to 0.644399
Heightened Def Con from 0.645399 to 0.645399
Heightened Def Con from 0.6464 to 0.6464
Heightened Def Con from 0.647402 to 0.647402
Heightened Def Con from 0.6484 to 0.6484
Heightened Def Con from 0.649399 to 0.649399
Heightened Def Con from 0.650402 to 0.650402
Heightened Def Con from 0.6524 to 0.6524
Heightened Def Con from 0.6534 to 0.6534
Heightened Def Con from 0.6554 to 0.6554
Heightened Def Con from 0.659401 to 0.659401
Heightened Def Con from 0.6634 to 0.6634
Heightened Def Con from 0.665399 to 0.665399
Heightened Def Con from 0.666401 to 0.666401
Heightened Def Con from 0.667399 to 0.667399
Heightened Def Con from 0.6684 to 0.6684
Heightened Def Con from 0.6694 to 0.6694
Heightened Def Con from 0.672399 to 0.672399
Heightened Def Con from 0.6754 to 0.6754
Heightened Def Con from 0.676399 to 0.676399
Heightened Def Con from 0.678399 to 0.678399
Heightened Def Con from 0.680399 to 0.680399
Heightened Def Con from 0.6814 to 0.6814
Heightened Def Con from 0.6824 to 0.6824
Heightened Def Con from 0.6834 to 0.6834
Heightened Def Con from 0.685399 to 0.685399
Heightened Def Con from 0.686403 to 0.686403
Heightened Def Con from 0.688401 to 0.688401
Heightened Def Con from 0.6894 to 0.6894
Heightened Def Con from 0.692401 to 0.692401
Heightened Def Con from 0.693399 to 0.693399
Heightened Def Con from 0.694399 to 0.694399
Heightened Def Con from 0.696399 to 0.696399
Heightened Def Con from 0.698398 to 0.698398
Heightened Def Con from 0.699401 to 0.699401
Heightened Def Con from 0.701399 to 0.701399
Heightened Def Con from 0.702398 to 0.702398
Heightened Def Con from 0.7034 to 0.7034
Heightened Def Con from 0.7064 to 0.7064
Heightened Def Con from 0.707406 to 0.707406
Heightened Def Con from 0.708401 to 0.708401
Heightened Def Con from 0.709399 to 0.709399
Heightened Def Con from 0.7114 to 0.7114
Heightened Def Con from 0.713399 to 0.713399
Heightened Def Con from 0.714399 to 0.714399
Heightened Def Con from 0.718399 to 0.718399
Heightened Def Con from 0.7204 to 0.7204
Heightened Def Con from 0.7224 to 0.7224
Heightened Def Con from 0.7234 to 0.7234
Heightened Def Con from 0.7254 to 0.7254
Heightened Def Con from 0.727401 to 0.727401
Heightened Def Con from 0.728399 to 0.728399
Heightened Def Con from 0.7304 to 0.7304
Heightened Def Con from 0.731399 to 0.731399
Heightened Def Con from 0.7324 to 0.7324
Heightened Def Con from 0.7334 to 0.7334
Heightened Def Con from 0.734401 to 0.734401
Heightened Def Con from 0.736402 to 0.736402
Heightened Def Con from 0.737399 to 0.737399
Heightened Def Con from 0.7384 to 0.7384
Heightened Def Con from 0.7394 to 0.7394
Heightened Def Con from 0.7404 to 0.7404
Heightened Def Con from 0.741399 to 0.741399
Heightened Def Con from 0.7424 to 0.7424
Heightened Def Con from 0.743399 to 0.743399
Heightened Def Con from 0.744399 to 0.744399
Heightened Def Con from 0.746402 to 0.746402
Heightened Def Con from 0.747402 to 0.747402
Heightened Def Con from 0.749399 to 0.749399
Heightened Def Con from 0.750399 to 0.750399
Heightened Def Con from 0.752402 to 0.752402
Heightened Def Con from 0.753399 to 0.753399
Heightened Def Con from 0.754399 to 0.754399
Heightened Def Con from 0.7554 to 0.7554
Heightened Def Con from 0.757399 to 0.757399
Heightened Def Con from 0.7594 to 0.7594
Heightened Def Con from 0.762399 to 0.762399
Heightened Def Con from 0.7634 to 0.7634
Heightened Def Con from 0.7644 to 0.7644
Heightened Def Con from 0.7654 to 0.7654
Heightened Def Con from 0.766399 to 0.766399
Heightened Def Con from 0.7674 to 0.7674
Heightened Def Con from 0.7684 to 0.7684
Heightened Def Con from 0.769406 to 0.769406
Heightened Def Con from 0.7704 to 0.7704
Heightened Def Con from 0.7714 to 0.7714
Heightened Def Con from 0.773403 to 0.773403
Heightened Def Con from 0.7744 to 0.7744
Heightened Def Con from 0.7754 to 0.7754
Heightened Def Con from 0.776401 to 0.776401
Heightened Def Con from 0.777399 to 0.777399
Heightened Def Con from 0.7784 to 0.7784
Heightened Def Con from 0.780399 to 0.780399
Heightened Def Con from 0.7824 to 0.7824
Heightened Def Con from 0.7854 to 0.7854
Heightened Def Con from 0.786401 to 0.786401
Heightened Def Con from 0.787401 to 0.787401
Heightened Def Con from 0.7884 to 0.7884
Heightened Def Con from 0.7904 to 0.7904
Heightened Def Con from 0.791399 to 0.791399
Heightened Def Con from 0.7924 to 0.7924
Heightened Def Con from 0.7934 to 0.7934
Heightened Def Con from 0.7944 to 0.7944
Heightened Def Con from 0.795399 to 0.795399
Heightened Def Con from 0.7974 to 0.7974
Heightened Def Con from 0.799399 to 0.799399
Heightened Def Con from 0.800399 to 0.800399
Heightened Def Con from 0.801399 to 0.801399
Heightened Def Con from 0.8024 to 0.8024
Heightened Def Con from 0.803399 to 0.803399
Heightened Def Con from 0.8044 to 0.8044
Heightened Def Con from 0.806402 to 0.806402
Heightened Def Con from 0.807399 to 0.807399
Heightened Def Con from 0.8084 to 0.8084
Heightened Def Con from 0.8094 to 0.8094
Heightened Def Con from 0.811402 to 0.811402
Heightened Def Con from 0.812399 to 0.812399
Heightened Def Con from 0.813401 to 0.813401
Heightened Def Con from 0.8154 to 0.8154
Heightened Def Con from 0.816401 to 0.816401
Heightened Def Con from 0.8174 to 0.8174
Heightened Def Con from 0.818399 to 0.818399
Heightened Def Con from 0.819401 to 0.819401
Heightened Def Con from 0.820399 to 0.820399
Heightened Def Con from 0.8224 to 0.8224
Heightened Def Con from 0.8234 to 0.8234
Heightened Def Con from 0.825399 to 0.825399
Heightened Def Con from 0.826399 to 0.826399
Heightened Def Con from 0.828399 to 0.828399
Heightened Def Con from 0.830399 to 0.830399
Heightened Def Con from 0.8324 to 0.8324
Heightened Def Con from 0.835401 to 0.835401
Heightened Def Con from 0.836399 to 0.836399
Heightened Def Con from 0.837399 to 0.837399
Heightened Def Con from 0.8384 to 0.8384
Heightened Def Con from 0.8404 to 0.8404
Heightened Def Con from 0.8414 to 0.8414
Heightened Def Con from 0.842399 to 0.842399
Heightened Def Con from 0.843402 to 0.843402
Heightened Def Con from 0.845399 to 0.845399
Heightened Def Con from 0.8474 to 0.8474
Heightened Def Con from 0.849399 to 0.849399
Heightened Def Con from 0.850401 to 0.850401
Heightened Def Con from 0.851402 to 0.851402
Heightened Def Con from 0.8524 to 0.8524
Heightened Def Con from 0.8534 to 0.8534
Heightened Def Con from 0.854402 to 0.854402
Heightened Def Con from 0.8554 to 0.8554
Heightened Def Con from 0.8564 to 0.8564
Heightened Def Con from 0.858399 to 0.858399
Heightened Def Con from 0.8594 to 0.8594
Heightened Def Con from 0.860402 to 0.860402
Heightened Def Con from 0.861401 to 0.861401
Heightened Def Con from 0.862401 to 0.862401
Heightened Def Con from 0.863399 to 0.863399
Heightened Def Con from 0.864399 to 0.864399
Heightened Def Con from 0.865399 to 0.865399
Heightened Def Con from 0.8664 to 0.8664
Heightened Def Con from 0.867399 to 0.867399
Heightened Def Con from 0.8684 to 0.8684
Heightened Def Con from 0.869399 to 0.869399
Heightened Def Con from 0.8724 to 0.8724
Heightened Def Con from 0.873399 to 0.873399
Heightened Def Con from 0.8744 to 0.8744
Heightened Def Con from 0.875399 to 0.875399
Heightened Def Con from 0.8764 to 0.8764
Heightened Def Con from 0.8784 to 0.8784
Heightened Def Con from 0.8794 to 0.8794
Heightened Def Con from 0.8804 to 0.8804
Heightened Def Con from 0.881399 to 0.881399
Heightened Def Con from 0.8824 to 0.8824
Heightened Def Con from 0.883401 to 0.883401
Heightened Def Con from 0.884403 to 0.884403
Heightened Def Con from 0.887399 to 0.887399
Heightened Def Con from 0.888399 to 0.888399
Heightened Def Con from 0.8894 to 0.8894
Heightened Def Con from 0.8904 to 0.8904
Heightened Def Con from 0.8924 to 0.8924
Heightened Def Con from 0.893399 to 0.893399
Heightened Def Con from 0.894399 to 0.894399
Heightened Def Con from 0.8984 to 0.8984
Heightened Def Con from 0.900403 to 0.900403
Heightened Def Con from 0.902399 to 0.902399
Heightened Def Con from 0.903406 to 0.903406
Heightened Def Con from 0.904399 to 0.904399
Heightened Def Con from 0.905399 to 0.905399
Heightened Def Con from 0.9084 to 0.9084
Heightened Def Con from 0.909399 to 0.909399
Heightened Def Con from 0.910399 to 0.910399
Heightened Def Con from 0.911399 to 0.911399
Heightened Def Con from 0.912406 to 0.912406
Heightened Def Con from 0.913399 to 0.913399
Heightened Def Con from 0.9154 to 0.9154
Heightened Def Con from 0.9164 to 0.9164
Heightened Def Con from 0.9174 to 0.9174
Heightened Def Con from 0.919402 to 0.919402
Heightened Def Con from 0.9204 to 0.9204
Heightened Def Con from 0.9214 to 0.9214
Heightened Def Con from 0.9234 to 0.9234
Heightened Def Con from 0.925407 to 0.925407
Heightened Def Con from 0.926398 to 0.926398
Heightened Def Con from 0.927402 to 0.927402
Heightened Def Con from 0.9284 to 0.9284
Heightened Def Con from 0.9314 to 0.9314
Heightened Def Con from 0.932399 to 0.932399
Heightened Def Con from 0.933399 to 0.933399
Heightened Def Con from 0.934399 to 0.934399
Heightened Def Con from 0.9354 to 0.9354
Heightened Def Con from 0.9364 to 0.9364
Heightened Def Con from 0.9374 to 0.9374
Heightened Def Con from 0.938399 to 0.938399
Heightened Def Con from 0.939399 to 0.939399
Heightened Def Con from 0.941399 to 0.941399
Heightened Def Con from 0.943399 to 0.943399
Heightened Def Con from 0.944399 to 0.944399
Heightened Def Con from 0.945402 to 0.945402
Heightened Def Con from 0.947399 to 0.947399
Heightened Def Con from 0.948399 to 0.948399
Heightened Def Con from 0.949399 to 0.949399
Heightened Def Con from 0.9514 to 0.9514
Heightened Def Con from 0.9534 to 0.9534
Heightened Def Con from 0.9544 to 0.9544
Heightened Def Con from 0.955401 to 0.955401
Heightened Def Con from 0.9564 to 0.9564
Heightened Def Con from 0.9574 to 0.9574
Heightened Def Con from 0.958399 to 0.958399
Heightened Def Con from 0.962402 to 0.962402
Heightened Def Con from 0.9634 to 0.9634
Heightened Def Con from 0.9644 to 0.9644
Heightened Def Con from 0.9654 to 0.9654
Heightened Def Con from 0.967402 to 0.967402
Heightened Def Con from 0.9684 to 0.9684
Heightened Def Con from 0.9694 to 0.9694
Heightened Def Con from 0.970399 to 0.970399
Heightened Def Con from 0.9714 to 0.9714
Heightened Def Con from 0.9724 to 0.9724
Heightened Def Con from 0.974399 to 0.974399
Heightened Def Con from 0.975399 to 0.975399
Heightened Def Con from 0.9764 to 0.9764
Heightened Def Con from 0.978399 to 0.978399
Heightened Def Con from 0.9794 to 0.9794
Heightened Def Con from 0.9804 to 0.9804
Heightened Def Con from 0.9824 to 0.9824
Heightened Def Con from 0.985401 to 0.985401
Heightened Def Con from 0.9864 to 0.9864
Heightened Def Con from 0.9884 to 0.9884
Heightened Def Con from 0.9894 to 0.9894
Heightened Def Con from 0.990399 to 0.990399
Heightened Def Con from 0.9914 to 0.9914
Heightened Def Con from 0.992399 to 0.992399
Heightened Def Con from 0.995399 to 0.995399
Heightened Def Con from 0.996399 to 0.996399
Heightened Def Con from 0.997399 to 0.997399
Heightened Def Con from 0.998399 to 0.998399
Heightened Def Con from 0.9994 to 0.9994
Heightened Def Con from 1.0004 to 1.0004
Heightened Def Con from 1.0014 to 1.0014
Heightened Def Con from 1.0024 to 1.0024
Heightened Def Con from 1.0034 to 1.0034
Heightened Def Con from 1.0044 to 1.0044
Heightened Def Con from 1.0054 to 1.0054
Heightened Def Con from 1.0074 to 1.0074
Heightened Def Con from 1.0084 to 1.0084
Heightened Def Con from 1.0104 to 1.0104
Heightened Def Con from 1.0124 to 1.0124
Heightened Def Con from 1.01341 to 1.01341
Heightened Def Con from 1.0144 to 1.0144
Heightened Def Con from 1.0154 to 1.0154
Heightened Def Con from 1.0174 to 1.0174
Heightened Def Con from 1.0184 to 1.0184
Heightened Def Con from 1.0194 to 1.0194
Heightened Def Con from 1.0204 to 1.0204
Heightened Def Con from 1.0214 to 1.0214
Heightened Def Con from 1.0224 to 1.0224
Heightened Def Con from 1.0244 to 1.0244
Heightened Def Con from 1.0254 to 1.0254
Heightened Def Con from 1.0264 to 1.0264
Heightened Def Con from 1.0274 to 1.0274
Heightened Def Con from 1.02841 to 1.02841
Heightened Def Con from 1.0294 to 1.0294
Heightened Def Con from 1.0304 to 1.0304
Heightened Def Con from 1.0314 to 1.0314
Heightened Def Con from 1.0324 to 1.0324
Heightened Def Con from 1.0334 to 1.0334
Heightened Def Con from 1.0344 to 1.0344
Heightened Def Con from 1.0364 to 1.0364
Heightened Def Con from 1.0374 to 1.0374
Heightened Def Con from 1.0394 to 1.0394
Heightened Def Con from 1.0404 to 1.0404
Heightened Def Con from 1.0414 to 1.0414
Heightened Def Con from 1.0424 to 1.0424
Heightened Def Con from 1.0434 to 1.0434
Heightened Def Con from 1.0444 to 1.0444
Heightened Def Con from 1.0474 to 1.0474
Heightened Def Con from 1.0504 to 1.0504
Heightened Def Con from 1.0514 to 1.0514
Heightened Def Con from 1.0524 to 1.0524
Heightened Def Con from 1.0534 to 1.0534
Heightened Def Con from 1.0544 to 1.0544
Heightened Def Con from 1.0554 to 1.0554
Heightened Def Con from 1.0574 to 1.0574
Heightened Def Con from 1.0584 to 1.0584
Heightened Def Con from 1.0594 to 1.0594
Heightened Def Con from 1.0614 to 1.0614
Heightened Def Con from 1.0654 to 1.0654
Heightened Def Con from 1.0664 to 1.0664
Heightened Def Con from 1.0684 to 1.0684
Heightened Def Con from 1.0694 to 1.0694
Heightened Def Con from 1.0704 to 1.0704
Heightened Def Con from 1.0714 to 1.0714
Heightened Def Con from 1.07541 to 1.07541
Heightened Def Con from 1.0764 to 1.0764
Heightened Def Con from 1.0774 to 1.0774
Heightened Def Con from 1.0784 to 1.0784
Heightened Def Con from 1.0794 to 1.0794
Heightened Def Con from 1.0804 to 1.0804
Heightened Def Con from 1.0814 to 1.0814
Heightened Def Con from 1.0824 to 1.0824
Heightened Def Con from 1.0844 to 1.0844
Heightened Def Con from 1.0854 to 1.0854
Heightened Def Con from 1.0864 to 1.0864
Heightened Def Con from 1.0874 to 1.0874
Heightened Def Con from 1.0894 to 1.0894
Heightened Def Con from 1.0914 to 1.0914
Heightened Def Con from 1.0924 to 1.0924
Heightened Def Con from 1.0944 to 1.0944
Heightened Def Con from 1.0954 to 1.0954
Heightened Def Con from 1.0964 to 1.0964
Heightened Def Con from 1.0974 to 1.0974
Heightened Def Con from 1.0984 to 1.0984
Heightened Def Con from 1.0994 to 1.0994
Heightened Def Con from 1.1004 to 1.1004
Heightened Def Con from 1.10141 to 1.10141
Heightened Def Con from 1.1024 to 1.1024
Heightened Def Con from 1.1034 to 1.1034
Heightened Def Con from 1.1054 to 1.1054
Heightened Def Con from 1.1064 to 1.1064
Heightened Def Con from 1.1074 to 1.1074
Heightened Def Con from 1.1084 to 1.1084
Heightened Def Con from 1.1124 to 1.1124
Heightened Def Con from 1.1134 to 1.1134
Heightened Def Con from 1.1144 to 1.1144
Heightened Def Con from 1.1154 to 1.1154
Heightened Def Con from 1.1164 to 1.1164
Heightened Def Con from 1.1194 to 1.1194
Heightened Def Con from 1.1204 to 1.1204
Heightened Def Con from 1.1214 to 1.1214
Heightened Def Con from 1.1224 to 1.1224
Heightened Def Con from 1.1234 to 1.1234
Heightened Def Con from 1.1244 to 1.1244
Heightened Def Con from 1.1264 to 1.1264
Heightened Def Con from 1.1304 to 1.1304
Heightened Def Con from 1.1324 to 1.1324
Heightened Def Con from 1.1344 to 1.1344
Heightened Def Con from 1.1364 to 1.1364
Heightened Def Con from 1.1374 to 1.1374
Heightened Def Con from 1.1384 to 1.1384
Heightened Def Con from 1.1394 to 1.1394
Heightened Def Con from 1.1404 to 1.1404
Heightened Def Con from 1.1424 to 1.1424
Heightened Def Con from 1.1434 to 1.1434
Heightened Def Con from 1.1444 to 1.1444
Heightened Def Con from 1.1464 to 1.1464
Heightened Def Con from 1.1474 to 1.1474
Heightened Def Con from 1.1484 to 1.1484
Heightened Def Con from 1.1494 to 1.1494
Heightened Def Con from 1.1504 to 1.1504
Heightened Def Con from 1.1514 to 1.1514
Heightened Def Con from 1.1524 to 1.1524
Heightened Def Con from 1.1534 to 1.1534
Heightened Def Con from 1.1554 to 1.1554
Heightened Def Con from 1.1564 to 1.1564
Heightened Def Con from 1.15841 to 1.15841
Heightened Def Con from 1.1624 to 1.1624
Heightened Def Con from 1.1634 to 1.1634
Heightened Def Con from 1.1644 to 1.1644
Heightened Def Con from 1.1654 to 1.1654
Heightened Def Con from 1.1664 to 1.1664
Heightened Def Con from 1.16741 to 1.16741
Heightened Def Con from 1.1694 to 1.1694
Heightened Def Con from 1.1704 to 1.1704
Heightened Def Con from 1.17141 to 1.17141
Heightened Def Con from 1.1724 to 1.1724
Heightened Def Con from 1.1744 to 1.1744
Heightened Def Con from 1.1754 to 1.1754
Heightened Def Con from 1.1764 to 1.1764
Heightened Def Con from 1.1784 to 1.1784
Heightened Def Con from 1.1814 to 1.1814
Heightened Def Con from 1.1824 to 1.1824
Heightened Def Con from 1.1834 to 1.1834
Heightened Def Con from 1.1844 to 1.1844
Heightened Def Con from 1.1874 to 1.1874
Heightened Def Con from 1.1884 to 1.1884
Heightened Def Con from 1.1904 to 1.1904
Heightened Def Con from 1.1914 to 1.1914
Heightened Def Con from 1.1924 to 1.1924
Heightened Def Con from 1.1934 to 1.1934
Heightened Def Con from 1.1954 to 1.1954
Heightened Def Con from 1.1964 to 1.1964
Heightened Def Con from 1.1974 to 1.1974
Heightened Def Con from 1.1984 to 1.1984
Heightened Def Con from 1.1994 to 1.1994
Heightened Def Con from 1.2004 to 1.2004
Heightened Def Con from 1.2014 to 1.2014
Heightened Def Con from 1.2024 to 1.2024
Heightened Def Con from 1.2044 to 1.2044
Heightened Def Con from 1.2054 to 1.2054
Heightened Def Con from 1.2094 to 1.2094
Heightened Def Con from 1.2104 to 1.2104
Heightened Def Con from 1.2114 to 1.2114
Heightened Def Con from 1.2124 to 1.2124
Heightened Def Con from 1.2134 to 1.2134
Heightened Def Con from 1.2144 to 1.2144
Heightened Def Con from 1.2154 to 1.2154
Heightened Def Con from 1.2164 to 1.2164
Heightened Def Con from 1.2184 to 1.2184
Heightened Def Con from 1.2194 to 1.2194
Heightened Def Con from 1.2204 to 1.2204
Heightened Def Con from 1.22241 to 1.22241
Heightened Def Con from 1.2234 to 1.2234
Heightened Def Con from 1.2244 to 1.2244
Heightened Def Con from 1.2254 to 1.2254
Heightened Def Con from 1.2264 to 1.2264
Heightened Def Con from 1.2274 to 1.2274
Heightened Def Con from 1.22841 to 1.22841
Heightened Def Con from 1.2294 to 1.2294
Heightened Def Con from 1.2304 to 1.2304
Heightened Def Con from 1.2314 to 1.2314
Heightened Def Con from 1.2324 to 1.2324
Heightened Def Con from 1.2334 to 1.2334
Heightened Def Con from 1.2354 to 1.2354
Heightened Def Con from 1.2364 to 1.2364
Heightened Def Con from 1.2384 to 1.2384
Heightened Def Con from 1.2394 to 1.2394
Heightened Def Con from 1.2404 to 1.2404
Heightened Def Con from 1.2454 to 1.2454
Heightened Def Con from 1.2464 to 1.2464
Heightened Def Con from 1.2474 to 1.2474
Heightened Def Con from 1.2484 to 1.2484
Heightened Def Con from 1.2494 to 1.2494
Heightened Def Con from 1.2514 to 1.2514
Heightened Def Con from 1.2534 to 1.2534
Heightened Def Con from 1.25541 to 1.25541
Heightened Def Con from 1.2584 to 1.2584
Heightened Def Con from 1.2594 to 1.2594
Heightened Def Con from 1.2604 to 1.2604
Heightened Def Con from 1.2634 to 1.2634
Heightened Def Con from 1.2674 to 1.2674
Heightened Def Con from 1.2694 to 1.2694
Heightened Def Con from 1.2704 to 1.2704
Heightened Def Con from 1.2714 to 1.2714
Heightened Def Con from 1.2754 to 1.2754
Heightened Def Con from 1.2764 to 1.2764
Heightened Def Con from 1.2774 to 1.2774
Heightened Def Con from 1.2784 to 1.2784
Heightened Def Con from 1.2794 to 1.2794
Heightened Def Con from 1.2804 to 1.2804
Heightened Def Con from 1.2824 to 1.2824
Heightened Def Con from 1.2834 to 1.2834
Heightened Def Con from 1.2844 to 1.2844
Heightened Def Con from 1.2854 to 1.2854
Heightened Def Con from 1.2864 to 1.2864
Heightened Def Con from 1.2874 to 1.2874
Heightened Def Con from 1.2884 to 1.2884
Heightened Def Con from 1.2914 to 1.2914
Heightened Def Con from 1.2934 to 1.2934
Heightened Def Con from 1.2944 to 1.2944
Heightened Def Con from 1.2954 to 1.2954
Heightened Def Con from 1.2964 to 1.2964
Heightened Def Con from 1.2994 to 1.2994
Heightened Def Con from 1.3004 to 1.3004
Heightened Def Con from 1.3014 to 1.3014
Heightened Def Con from 1.3024 to 1.3024
Heightened Def Con from 1.3034 to 1.3034
Heightened Def Con from 1.3064 to 1.3064
Heightened Def Con from 1.3084 to 1.3084
Heightened Def Con from 1.3094 to 1.3094
Heightened Def Con from 1.3104 to 1.3104
Heightened Def Con from 1.3124 to 1.3124
Heightened Def Con from 1.3134 to 1.3134
Heightened Def Con from 1.3144 to 1.3144
Heightened Def Con from 1.3164 to 1.3164
Heightened Def Con from 1.3174 to 1.3174
Heightened Def Con from 1.3184 to 1.3184
Heightened Def Con from 1.3194 to 1.3194
Heightened Def Con from 1.3204 to 1.3204
Heightened Def Con from 1.3214 to 1.3214
Heightened Def Con from 1.3224 to 1.3224
Heightened Def Con from 1.3234 to 1.3234
Heightened Def Con from 1.3244 to 1.3244
Heightened Def Con from 1.3254 to 1.3254
Heightened Def Con from 1.32641 to 1.32641
Heightened Def Con from 1.3274 to 1.3274
Heightened Def Con from 1.3284 to 1.3284
Heightened Def Con from 1.3294 to 1.3294
Heightened Def Con from 1.3304 to 1.3304
Heightened Def Con from 1.3314 to 1.3314
Heightened Def Con from 1.3324 to 1.3324
Heightened Def Con from 1.3354 to 1.3354
Heightened Def Con from 1.3374 to 1.3374
Heightened Def Con from 1.3384 to 1.3384
Heightened Def Con from 1.3394 to 1.3394
Heightened Def Con from 1.3414 to 1.3414
Heightened Def Con from 1.3424 to 1.3424
Heightened Def Con from 1.3434 to 1.3434
Heightened Def Con from 1.3444 to 1.3444
Heightened Def Con from 1.3454 to 1.3454
Heightened Def Con from 1.3464 to 1.3464
Heightened Def Con from 1.3474 to 1.3474
Heightened Def Con from 1.3484 to 1.3484
Heightened Def Con from 1.3494 to 1.3494
Heightened Def Con from 1.3504 to 1.3504
Heightened Def Con from 1.3514 to 1.3514
Heightened Def Con from 1.3524 to 1.3524
Heightened Def Con from 1.3534 to 1.3534
Heightened Def Con from 1.3544 to 1.3544
Heightened Def Con from 1.3554 to 1.3554
Heightened Def Con from 1.3564 to 1.3564
Heightened Def Con from 1.3574 to 1.3574
Heightened Def Con from 1.3584 to 1.3584
Heightened Def Con from 1.3594 to 1.3594
Heightened Def Con from 1.3614 to 1.3614
Heightened Def Con from 1.3624 to 1.3624
Heightened Def Con from 1.3644 to 1.3644
Heightened Def Con from 1.3664 to 1.3664
Heightened Def Con from 1.3684 to 1.3684
Heightened Def Con from 1.3704 to 1.3704
Heightened Def Con from 1.3724 to 1.3724
Heightened Def Con from 1.3734 to 1.3734
Heightened Def Con from 1.3744 to 1.3744
Heightened Def Con from 1.3764 to 1.3764
Heightened Def Con from 1.3774 to 1.3774
Heightened Def Con from 1.3794 to 1.3794
Heightened Def Con from 1.3814 to 1.3814
Heightened Def Con from 1.38341 to 1.38341
Heightened Def Con from 1.3864 to 1.3864
Heightened Def Con from 1.3874 to 1.3874
Heightened Def Con from 1.3884 to 1.3884
Heightened Def Con from 1.3894 to 1.3894
Heightened Def Con from 1.39141 to 1.39141
Heightened Def Con from 1.3924 to 1.3924
Heightened Def Con from 1.3934 to 1.3934
Heightened Def Con from 1.3944 to 1.3944
Heightened Def Con from 1.3954 to 1.3954
Heightened Def Con from 1.3964 to 1.3964
Heightened Def Con from 1.39841 to 1.39841
Heightened Def Con from 1.3994 to 1.3994
Heightened Def Con from 1.4024 to 1.4024
Heightened Def Con from 1.4044 to 1.4044
Heightened Def Con from 1.4064 to 1.4064
Heightened Def Con from 1.4074 to 1.4074
Heightened Def Con from 1.4084 to 1.4084
Heightened Def Con from 1.4094 to 1.4094
Heightened Def Con from 1.41241 to 1.41241
Heightened Def Con from 1.4164 to 1.4164
Heightened Def Con from 1.4174 to 1.4174
Heightened Def Con from 1.4184 to 1.4184
Heightened Def Con from 1.4204 to 1.4204
Heightened Def Con from 1.4214 to 1.4214
Heightened Def Con from 1.4224 to 1.4224
Heightened Def Con from 1.42341 to 1.42341
Heightened Def Con from 1.4244 to 1.4244
Heightened Def Con from 1.4264 to 1.4264
Heightened Def Con from 1.4274 to 1.4274
Heightened Def Con from 1.4284 to 1.4284
Heightened Def Con from 1.4294 to 1.4294
Heightened Def Con from 1.4304 to 1.4304
Heightened Def Con from 1.4314 to 1.4314
Heightened Def Con from 1.4334 to 1.4334
Heightened Def Con from 1.4344 to 1.4344
Heightened Def Con from 1.4364 to 1.4364
Heightened Def Con from 1.4394 to 1.4394
Heightened Def Con from 1.4404 to 1.4404
Heightened Def Con from 1.4414 to 1.4414
Heightened Def Con from 1.4424 to 1.4424
Heightened Def Con from 1.4434 to 1.4434
Heightened Def Con from 1.4444 to 1.4444
Heightened Def Con from 1.4454 to 1.4454
Heightened Def Con from 1.44641 to 1.44641
Heightened Def Con from 1.4474 to 1.4474
Heightened Def Con from 1.4484 to 1.4484
Heightened Def Con from 1.4494 to 1.4494
Heightened Def Con from 1.4504 to 1.4504
Heightened Def Con from 1.4514 to 1.4514
Heightened Def Con from 1.4524 to 1.4524
Heightened Def Con from 1.4534 to 1.4534
Heightened Def Con from 1.4544 to 1.4544
Heightened Def Con from 1.4564 to 1.4564
Heightened Def Con from 1.4574 to 1.4574
Heightened Def Con from 1.4584 to 1.4584
Heightened Def Con from 1.4594 to 1.4594
Heightened Def Con from 1.4604 to 1.4604
Heightened Def Con from 1.4614 to 1.4614
Heightened Def Con from 1.4624 to 1.4624
Heightened Def Con from 1.4634 to 1.4634
Heightened Def Con from 1.4644 to 1.4644
Heightened Def Con from 1.4664 to 1.4664
Heightened Def Con from 1.4674 to 1.4674
Heightened Def Con from 1.4684 to 1.4684
Heightened Def Con from 1.4694 to 1.4694
Heightened Def Con from 1.4704 to 1.4704
Heightened Def Con from 1.4744 to 1.4744
Heightened Def Con from 1.4764 to 1.4764
Heightened Def Con from 1.4774 to 1.4774
Heightened Def Con from 1.4794 to 1.4794
Heightened Def Con from 1.4804 to 1.4804
Heightened Def Con from 1.4814 to 1.4814
Heightened Def Con from 1.4824 to 1.4824
Heightened Def Con from 1.4844 to 1.4844
Heightened Def Con from 1.4854 to 1.4854
Heightened Def Con from 1.4864 to 1.4864
Heightened Def Con from 1.4874 to 1.4874
Heightened Def Con from 1.4884 to 1.4884
Heightened Def Con from 1.4894 to 1.4894
Heightened Def Con from 1.4904 to 1.4904
Heightened Def Con from 1.4914 to 1.4914
Heightened Def Con from 1.4924 to 1.4924
Heightened Def Con from 1.4944 to 1.4944
Heightened Def Con from 1.4964 to 1.4964
Heightened Def Con from 1.4974 to 1.4974
Heightened Def Con from 1.5014 to 1.5014
Heightened Def Con from 1.5024 to 1.5024
Heightened Def Con from 1.5044 to 1.5044
Heightened Def Con from 1.5054 to 1.5054
Heightened Def Con from 1.5064 to 1.5064
Heightened Def Con from 1.5094 to 1.5094
Heightened Def Con from 1.5104 to 1.5104
Heightened Def Con from 1.5114 to 1.5114
Heightened Def Con from 1.5124 to 1.5124
Heightened Def Con from 1.5154 to 1.5154
Heightened Def Con from 1.5164 to 1.5164
Heightened Def Con from 1.5184 to 1.5184
Heightened Def Con from 1.5194 to 1.5194
Heightened Def Con from 1.5224 to 1.5224
Heightened Def Con from 1.5234 to 1.5234
Heightened Def Con from 1.5244 to 1.5244
Heightened Def Con from 1.5254 to 1.5254
Heightened Def Con from 1.5264 to 1.5264
Heightened Def Con from 1.5274 to 1.5274
Heightened Def Con from 1.5294 to 1.5294
Heightened Def Con from 1.5304 to 1.5304
Heightened Def Con from 1.5314 to 1.5314
Heightened Def Con from 1.5324 to 1.5324
Heightened Def Con from 1.5334 to 1.5334
Heightened Def Con from 1.5344 to 1.5344
Heightened Def Con from 1.5354 to 1.5354
Heightened Def Con from 1.5364 to 1.5364
Heightened Def Con from 1.5374 to 1.5374
Heightened Def Con from 1.5384 to 1.5384
Heightened Def Con from 1.5404 to 1.5404
Heightened Def Con from 1.5414 to 1.5414
Heightened Def Con from 1.5434 to 1.5434
Heightened Def Con from 1.5444 to 1.5444
Heightened Def Con from 1.54541 to 1.54541
Heightened Def Con from 1.5484 to 1.5484
Heightened Def Con from 1.5504 to 1.5504
Heightened Def Con from 1.5514 to 1.5514
Heightened Def Con from 1.5524 to 1.5524
Heightened Def Con from 1.5534 to 1.5534
Heightened Def Con from 1.5544 to 1.5544
Heightened Def Con from 1.5554 to 1.5554
Heightened Def Con from 1.5564 to 1.5564
Heightened Def Con from 1.5574 to 1.5574
Heightened Def Con from 1.5584 to 1.5584
Heightened Def Con from 1.5594 to 1.5594
Heightened Def Con from 1.5604 to 1.5604
Heightened Def Con from 1.5624 to 1.5624
Heightened Def Con from 1.5634 to 1.5634
Heightened Def Con from 1.5664 to 1.5664
Heightened Def Con from 1.5684 to 1.5684
Heightened Def Con from 1.5694 to 1.5694
Heightened Def Con from 1.5704 to 1.5704
Heightened Def Con from 1.5714 to 1.5714
Heightened Def Con from 1.5734 to 1.5734
Heightened Def Con from 1.57541 to 1.57541
Heightened Def Con from 1.5774 to 1.5774
Heightened Def Con from 1.5794 to 1.5794
Heightened Def Con from 1.5804 to 1.5804
Heightened Def Con from 1.5814 to 1.5814
Heightened Def Con from 1.5824 to 1.5824
Heightened Def Con from 1.5834 to 1.5834
Heightened Def Con from 1.5874 to 1.5874
Heightened Def Con from 1.5894 to 1.5894
Heightened Def Con from 1.5904 to 1.5904
Heightened Def Con from 1.5914 to 1.5914
Heightened Def Con from 1.5934 to 1.5934
Heightened Def Con from 1.5954 to 1.5954
Heightened Def Con from 1.5964 to 1.5964
Heightened Def Con from 1.5984 to 1.5984
Heightened Def Con from 1.5994 to 1.5994
Heightened Def Con from 1.6024 to 1.6024
Heightened Def Con from 1.6034 to 1.6034
Heightened Def Con from 1.6044 to 1.6044
Heightened Def Con from 1.6054 to 1.6054
Heightened Def Con from 1.6094 to 1.6094
Heightened Def Con from 1.6104 to 1.6104
Heightened Def Con from 1.61141 to 1.61141
Heightened Def Con from 1.6124 to 1.6124
Heightened Def Con from 1.6144 to 1.6144
Heightened Def Con from 1.6164 to 1.6164
Heightened Def Con from 1.6174 to 1.6174
Heightened Def Con from 1.61841 to 1.61841
Heightened Def Con from 1.6204 to 1.6204
Heightened Def Con from 1.6214 to 1.6214
Heightened Def Con from 1.6224 to 1.6224
Heightened Def Con from 1.6234 to 1.6234
Heightened Def Con from 1.6254 to 1.6254
Heightened Def Con from 1.6264 to 1.6264
Heightened Def Con from 1.6274 to 1.6274
Heightened Def Con from 1.6284 to 1.6284
Heightened Def Con from 1.6294 to 1.6294
Heightened Def Con from 1.6304 to 1.6304
Heightened Def Con from 1.6314 to 1.6314
Heightened Def Con from 1.6334 to 1.6334
Heightened Def Con from 1.6344 to 1.6344
Heightened Def Con from 1.6384 to 1.6384
Heightened Def Con from 1.6394 to 1.6394
Heightened Def Con from 1.6404 to 1.6404
Heightened Def Con from 1.6434 to 1.6434
Heightened Def Con from 1.6444 to 1.6444
Heightened Def Con from 1.6454 to 1.6454
Heightened Def Con from 1.6484 to 1.6484
Heightened Def Con from 1.6494 to 1.6494
Heightened Def Con from 1.6524 to 1.6524
Heightened Def Con from 1.6534 to 1.6534
Heightened Def Con from 1.6564 to 1.6564
Heightened Def Con from 1.6574 to 1.6574
Heightened Def Con from 1.6584 to 1.6584
Heightened Def Con from 1.6614 to 1.6614
Heightened Def Con from 1.6634 to 1.6634
Heightened Def Con from 1.6644 to 1.6644
Heightened Def Con from 1.6654 to 1.6654
Heightened Def Con from 1.6664 to 1.6664
Heightened Def Con from 1.6684 to 1.6684
Heightened Def Con from 1.6694 to 1.6694
Heightened Def Con from 1.6704 to 1.6704
Heightened Def Con from 1.6714 to 1.6714
Heightened Def Con from 1.6724 to 1.6724
Heightened Def Con from 1.6744 to 1.6744
Heightened Def Con from 1.6764 to 1.6764
Heightened Def Con from 1.6784 to 1.6784
Heightened Def Con from 1.67941 to 1.67941
Heightened Def Con from 1.6814 to 1.6814
Heightened Def Con from 1.6844 to 1.6844
Heightened Def Con from 1.6854 to 1.6854
Heightened Def Con from 1.6864 to 1.6864
Heightened Def Con from 1.6874 to 1.6874
Heightened Def Con from 1.6884 to 1.6884
Heightened Def Con from 1.6894 to 1.6894
Heightened Def Con from 1.6904 to 1.6904
Heightened Def Con from 1.6954 to 1.6954
Heightened Def Con from 1.6964 to 1.6964
Heightened Def Con from 1.6974 to 1.6974
Heightened Def Con from 1.6984 to 1.6984
Heightened Def Con from 1.6994 to 1.6994
Heightened Def Con from 1.7004 to 1.7004
Heightened Def Con from 1.7014 to 1.7014
Heightened Def Con from 1.7034 to 1.7034
Heightened Def Con from 1.7044 to 1.7044
Heightened Def Con from 1.7074 to 1.7074
Heightened Def Con from 1.7084 to 1.7084
Heightened Def Con from 1.7104 to 1.7104
Heightened Def Con from 1.7114 to 1.7114
Heightened Def Con from 1.7124 to 1.7124
Heightened Def Con from 1.7134 to 1.7134
Heightened Def Con from 1.7144 to 1.7144
Heightened Def Con from 1.7154 to 1.7154
Heightened Def Con from 1.7164 to 1.7164
Heightened Def Con from 1.7174 to 1.7174
Heightened Def Con from 1.7184 to 1.7184
Heightened Def Con from 1.7214 to 1.7214
Heightened Def Con from 1.7234 to 1.7234
Heightened Def Con from 1.7244 to 1.7244
Heightened Def Con from 1.7254 to 1.7254
Heightened Def Con from 1.7264 to 1.7264
Heightened Def Con from 1.7274 to 1.7274
Heightened Def Con from 1.7284 to 1.7284
Heightened Def Con from 1.7314 to 1.7314
Heightened Def Con from 1.7324 to 1.7324
Heightened Def Con from 1.7334 to 1.7334
Heightened Def Con from 1.7344 to 1.7344
Heightened Def Con from 1.7354 to 1.7354
Heightened Def Con from 1.7374 to 1.7374
Heightened Def Con from 1.7384 to 1.7384
Heightened Def Con from 1.7404 to 1.7404
Heightened Def Con from 1.7414 to 1.7414
Heightened Def Con from 1.74341 to 1.74341
Heightened Def Con from 1.7444 to 1.7444
Heightened Def Con from 1.7454 to 1.7454
Heightened Def Con from 1.7464 to 1.7464
Heightened Def Con from 1.7474 to 1.7474
Heightened Def Con from 1.7484 to 1.7484
Heightened Def Con from 1.7494 to 1.7494
Heightened Def Con from 1.7524 to 1.7524
Heightened Def Con from 1.7534 to 1.7534
Heightened Def Con from 1.7544 to 1.7544
Heightened Def Con from 1.7554 to 1.7554
Heightened Def Con from 1.7574 to 1.7574
Heightened Def Con from 1.7584 to 1.7584
Heightened Def Con from 1.7594 to 1.7594
Heightened Def Con from 1.7604 to 1.7604
Heightened Def Con from 1.7614 to 1.7614
Heightened Def Con from 1.7624 to 1.7624
Heightened Def Con from 1.76441 to 1.76441
Heightened Def Con from 1.7654 to 1.7654
Heightened Def Con from 1.7664 to 1.7664
Heightened Def Con from 1.7674 to 1.7674
Heightened Def Con from 1.7684 to 1.7684
Heightened Def Con from 1.7704 to 1.7704
Heightened Def Con from 1.7714 to 1.7714
Heightened Def Con from 1.7724 to 1.7724
Heightened Def Con from 1.7734 to 1.7734
Heightened Def Con from 1.7744 to 1.7744
Heightened Def Con from 1.7754 to 1.7754
Heightened Def Con from 1.7764 to 1.7764
Heightened Def Con from 1.7774 to 1.7774
Heightened Def Con from 1.7794 to 1.7794
Heightened Def Con from 1.78041 to 1.78041
Heightened Def Con from 1.7814 to 1.7814
Heightened Def Con from 1.7844 to 1.7844
Heightened Def Con from 1.7854 to 1.7854
Heightened Def Con from 1.7864 to 1.7864
Heightened Def Con from 1.7874 to 1.7874
Heightened Def Con from 1.7884 to 1.7884
Heightened Def Con from 1.7894 to 1.7894
Heightened Def Con from 1.7904 to 1.7904
Heightened Def Con from 1.7914 to 1.7914
Heightened Def Con from 1.7924 to 1.7924
Heightened Def Con from 1.7934 to 1.7934
Heightened Def Con from 1.7944 to 1.7944
Heightened Def Con from 1.7974 to 1.7974
Heightened Def Con from 1.7984 to 1.7984
Heightened Def Con from 1.8004 to 1.8004
Heightened Def Con from 1.8024 to 1.8024
Heightened Def Con from 1.8034 to 1.8034
Heightened Def Con from 1.8054 to 1.8054
Heightened Def Con from 1.8064 to 1.8064
Heightened Def Con from 1.8074 to 1.8074
Heightened Def Con from 1.8084 to 1.8084
Heightened Def Con from 1.8094 to 1.8094
Heightened Def Con from 1.8104 to 1.8104
Heightened Def Con from 1.8114 to 1.8114
Heightened Def Con from 1.8124 to 1.8124
Heightened Def Con from 1.8144 to 1.8144
Heightened Def Con from 1.8154 to 1.8154
Heightened Def Con from 1.8184 to 1.8184
Heightened Def Con from 1.8194 to 1.8194
Heightened Def Con from 1.82041 to 1.82041
Heightened Def Con from 1.8214 to 1.8214
Heightened Def Con from 1.8224 to 1.8224
Heightened Def Con from 1.8244 to 1.8244
Heightened Def Con from 1.8254 to 1.8254
Heightened Def Con from 1.8274 to 1.8274
Heightened Def Con from 1.8284 to 1.8284
Heightened Def Con from 1.8294 to 1.8294
Heightened Def Con from 1.8324 to 1.8324
Heightened Def Con from 1.8334 to 1.8334
Heightened Def Con from 1.8374 to 1.8374
Heightened Def Con from 1.8384 to 1.8384
Heightened Def Con from 1.8394 to 1.8394
Heightened Def Con from 1.8404 to 1.8404
Heightened Def Con from 1.8414 to 1.8414
Heightened Def Con from 1.8424 to 1.8424
Heightened Def Con from 1.84441 to 1.84441
Heightened Def Con from 1.8454 to 1.8454
Heightened Def Con from 1.8464 to 1.8464
Heightened Def Con from 1.8484 to 1.8484
Heightened Def Con from 1.8494 to 1.8494
Heightened Def Con from 1.8514 to 1.8514
Heightened Def Con from 1.8524 to 1.8524
Heightened Def Con from 1.8534 to 1.8534
Heightened Def Con from 1.8544 to 1.8544
Heightened Def Con from 1.8564 to 1.8564
Heightened Def Con from 1.8574 to 1.8574
Heightened Def Con from 1.8584 to 1.8584
Heightened Def Con from 1.8614 to 1.8614
Heightened Def Con from 1.8624 to 1.8624
Heightened Def Con from 1.8634 to 1.8634
Heightened Def Con from 1.8644 to 1.8644
Heightened Def Con from 1.8654 to 1.8654
Heightened Def Con from 1.8674 to 1.8674
Heightened Def Con from 1.8684 to 1.8684
Heightened Def Con from 1.8704 to 1.8704
Heightened Def Con from 1.8714 to 1.8714
Heightened Def Con from 1.8724 to 1.8724
Heightened Def Con from 1.8734 to 1.8734
Heightened Def Con from 1.8754 to 1.8754
Heightened Def Con from 1.8764 to 1.8764
Heightened Def Con from 1.8784 to 1.8784
Heightened Def Con from 1.8794 to 1.8794
Heightened Def Con from 1.8804 to 1.8804
Heightened Def Con from 1.8814 to 1.8814
Heightened Def Con from 1.8824 to 1.8824
Heightened Def Con from 1.8834 to 1.8834
Heightened Def Con from 1.8844 to 1.8844
Heightened Def Con from 1.8864 to 1.8864
Heightened Def Con from 1.8874 to 1.8874
Heightened Def Con from 1.8884 to 1.8884
Heightened Def Con from 1.8904 to 1.8904
Heightened Def Con from 1.8914 to 1.8914
Heightened Def Con from 1.8924 to 1.8924
Heightened Def Con from 1.8944 to 1.8944
Heightened Def Con from 1.8954 to 1.8954
Heightened Def Con from 1.9024 to 1.9024
Heightened Def Con from 1.9034 to 1.9034
Heightened Def Con from 1.9044 to 1.9044
Heightened Def Con from 1.9054 to 1.9054
Heightened Def Con from 1.9064 to 1.9064
Heightened Def Con from 1.9084 to 1.9084
Heightened Def Con from 1.9094 to 1.9094
Heightened Def Con from 1.9114 to 1.9114
Heightened Def Con from 1.9124 to 1.9124
Heightened Def Con from 1.9134 to 1.9134
Heightened Def Con from 1.9144 to 1.9144
Heightened Def Con from 1.9154 to 1.9154
Heightened Def Con from 1.9164 to 1.9164
Heightened Def Con from 1.9174 to 1.9174
Heightened Def Con from 1.9194 to 1.9194
Heightened Def Con from 1.9204 to 1.9204
Heightened Def Con from 1.9214 to 1.9214
Heightened Def Con from 1.9224 to 1.9224
Heightened Def Con from 1.9234 to 1.9234
Heightened Def Con from 1.9264 to 1.9264
Heightened Def Con from 1.9274 to 1.9274
Heightened Def Con from 1.9284 to 1.9284
Heightened Def Con from 1.9294 to 1.9294
Heightened Def Con from 1.9304 to 1.9304
Heightened Def Con from 1.9314 to 1.9314
Heightened Def Con from 1.9354 to 1.9354
Heightened Def Con from 1.9364 to 1.9364
Heightened Def Con from 1.9384 to 1.9384
Heightened Def Con from 1.9404 to 1.9404
Heightened Def Con from 1.9414 to 1.9414
Heightened Def Con from 1.9424 to 1.9424
Heightened Def Con from 1.9434 to 1.9434
Heightened Def Con from 1.9444 to 1.9444
Heightened Def Con from 1.9454 to 1.9454
Heightened Def Con from 1.9464 to 1.9464
Heightened Def Con from 1.9474 to 1.9474
Heightened Def Con from 1.9484 to 1.9484
Heightened Def Con from 1.9494 to 1.9494
Heightened Def Con from 1.9504 to 1.9504
Heightened Def Con from 1.9514 to 1.9514
Heightened Def Con from 1.9524 to 1.9524
Heightened Def Con from 1.9534 to 1.9534
Heightened Def Con from 1.9544 to 1.9544
Heightened Def Con from 1.9554 to 1.9554
Heightened Def Con from 1.9564 to 1.9564
Heightened Def Con from 1.95741 to 1.95741
Heightened Def Con from 1.9584 to 1.9584
Heightened Def Con from 1.9594 to 1.9594
Heightened Def Con from 1.9604 to 1.9604
Heightened Def Con from 1.9614 to 1.9614
Heightened Def Con from 1.9624 to 1.9624
Heightened Def Con from 1.9634 to 1.9634
Heightened Def Con from 1.9644 to 1.9644
Heightened Def Con from 1.9664 to 1.9664
Heightened Def Con from 1.9674 to 1.9674
Heightened Def Con from 1.9684 to 1.9684
Heightened Def Con from 1.9694 to 1.9694
Heightened Def Con from 1.9704 to 1.9704
Heightened Def Con from 1.9724 to 1.9724
Heightened Def Con from 1.9734 to 1.9734
Heightened Def Con from 1.9744 to 1.9744
Heightened Def Con from 1.97541 to 1.97541
Heightened Def Con from 1.9764 to 1.9764
Heightened Def Con from 1.9774 to 1.9774
Heightened Def Con from 1.9794 to 1.9794
Heightened Def Con from 1.9804 to 1.9804
Heightened Def Con from 1.9814 to 1.9814
Heightened Def Con from 1.9844 to 1.9844
Heightened Def Con from 1.9854 to 1.9854
Heightened Def Con from 1.9864 to 1.9864
Heightened Def Con from 1.9874 to 1.9874
Heightened Def Con from 1.9894 to 1.9894
Heightened Def Con from 1.9904 to 1.9904
Heightened Def Con from 1.9914 to 1.9914
Heightened Def Con from 1.9924 to 1.9924
Heightened Def Con from 1.9934 to 1.9934
Heightened Def Con from 1.9954 to 1.9954
Heightened Def Con from 1.9964 to 1.9964
Heightened Def Con from 1.9984 to 1.9984
Heightened Def Con from 2.0004 to 2.0004
Heightened Def Con from 2.0014 to 2.0014
Heightened Def Con from 2.0024 to 2.0024
Heightened Def Con from 2.0034 to 2.0034
Heightened Def Con from 2.0064 to 2.0064
Heightened Def Con from 2.0074 to 2.0074
Heightened Def Con from 2.0084 to 2.0084
Heightened Def Con from 2.0104 to 2.0104
Heightened Def Con from 2.0114 to 2.0114
Heightened Def Con from 2.0134 to 2.0134
Heightened Def Con from 2.0154 to 2.0154
Heightened Def Con from 2.0164 to 2.0164
Heightened Def Con from 2.0174 to 2.0174
Heightened Def Con from 2.0194 to 2.0194
Heightened Def Con from 2.0204 to 2.0204
Heightened Def Con from 2.0214 to 2.0214
Heightened Def Con from 2.0224 to 2.0224
Heightened Def Con from 2.0234 to 2.0234
Heightened Def Con from 2.0254 to 2.0254
Heightened Def Con from 2.0264 to 2.0264
Heightened Def Con from 2.0274 to 2.0274
Heightened Def Con from 2.0284 to 2.0284
Heightened Def Con from 2.0294 to 2.0294
Heightened Def Con from 2.0304 to 2.0304
Heightened Def Con from 2.0314 to 2.0314
Heightened Def Con from 2.0324 to 2.0324
Heightened Def Con from 2.03441 to 2.03441
Heightened Def Con from 2.0354 to 2.0354
Heightened Def Con from 2.0374 to 2.0374
Heightened Def Con from 2.0384 to 2.0384
Heightened Def Con from 2.0394 to 2.0394
Heightened Def Con from 2.0414 to 2.0414
Heightened Def Con from 2.0424 to 2.0424
Heightened Def Con from 2.0444 to 2.0444
Heightened Def Con from 2.0454 to 2.0454
Heightened Def Con from 2.0464 to 2.0464
Heightened Def Con from 2.0474 to 2.0474
Heightened Def Con from 2.0484 to 2.0484
Heightened Def Con from 2.0494 to 2.0494
Heightened Def Con from 2.0504 to 2.0504
Heightened Def Con from 2.0514 to 2.0514
Heightened Def Con from 2.0534 to 2.0534
Heightened Def Con from 2.0544 to 2.0544
Heightened Def Con from 2.0554 to 2.0554
Heightened Def Con from 2.0574 to 2.0574
Heightened Def Con from 2.0584 to 2.0584
Heightened Def Con from 2.0594 to 2.0594
Heightened Def Con from 2.0614 to 2.0614
Heightened Def Con from 2.0624 to 2.0624
Heightened Def Con from 2.0634 to 2.0634
Heightened Def Con from 2.0644 to 2.0644
Heightened Def Con from 2.0654 to 2.0654
Heightened Def Con from 2.0664 to 2.0664
Heightened Def Con from 2.0674 to 2.0674
Heightened Def Con from 2.0694 to 2.0694
Heightened Def Con from 2.0704 to 2.0704
Heightened Def Con from 2.0714 to 2.0714
Heightened Def Con from 2.0734 to 2.0734
Heightened Def Con from 2.0744 to 2.0744
Heightened Def Con from 2.0764 to 2.0764
Heightened Def Con from 2.0774 to 2.0774
Heightened Def Con from 2.0784 to 2.0784
Heightened Def Con from 2.0794 to 2.0794
Heightened Def Con from 2.0814 to 2.0814
Heightened Def Con from 2.0824 to 2.0824
Heightened Def Con from 2.0834 to 2.0834
Heightened Def Con from 2.0884 to 2.0884
Heightened Def Con from 2.0894 to 2.0894
Heightened Def Con from 2.0904 to 2.0904
Heightened Def Con from 2.0914 to 2.0914
Heightened Def Con from 2.0924 to 2.0924
Heightened Def Con from 2.0934 to 2.0934
Heightened Def Con from 2.0944 to 2.0944
Heightened Def Con from 2.0974 to 2.0974
Heightened Def Con from 2.0984 to 2.0984
Heightened Def Con from 2.0994 to 2.0994
Heightened Def Con from 2.1014 to 2.1014
Heightened Def Con from 2.1024 to 2.1024
Heightened Def Con from 2.1034 to 2.1034
Heightened Def Con from 2.1044 to 2.1044
Heightened Def Con from 2.1054 to 2.1054
Heightened Def Con from 2.1074 to 2.1074
Heightened Def Con from 2.1094 to 2.1094
Heightened Def Con from 2.1114 to 2.1114
Heightened Def Con from 2.1124 to 2.1124
Heightened Def Con from 2.1154 to 2.1154
Heightened Def Con from 2.1164 to 2.1164
Heightened Def Con from 2.1174 to 2.1174
Heightened Def Con from 2.1204 to 2.1204
Heightened Def Con from 2.1214 to 2.1214
Heightened Def Con from 2.1224 to 2.1224
Heightened Def Con from 2.1254 to 2.1254
Heightened Def Con from 2.1264 to 2.1264
Heightened Def Con from 2.1274 to 2.1274
Heightened Def Con from 2.1304 to 2.1304
Heightened Def Con from 2.1314 to 2.1314
Heightened Def Con from 2.1324 to 2.1324
Heightened Def Con from 2.1334 to 2.1334
Heightened Def Con from 2.1344 to 2.1344
Heightened Def Con from 2.1354 to 2.1354
Heightened Def Con from 2.1394 to 2.1394
Heightened Def Con from 2.1404 to 2.1404
Heightened Def Con from 2.1414 to 2.1414
Heightened Def Con from 2.1424 to 2.1424
Heightened Def Con from 2.1444 to 2.1444
Heightened Def Con from 2.1464 to 2.1464
Heightened Def Con from 2.1474 to 2.1474
Heightened Def Con from 2.1484 to 2.1484
Heightened Def Con from 2.1494 to 2.1494
Heightened Def Con from 2.1504 to 2.1504
Heightened Def Con from 2.1514 to 2.1514
Heightened Def Con from 2.1524 to 2.1524
Heightened Def Con from 2.1534 to 2.1534
Heightened Def Con from 2.15541 to 2.15541
Heightened Def Con from 2.1564 to 2.1564
Heightened Def Con from 2.1574 to 2.1574
Heightened Def Con from 2.1594 to 2.1594
Heightened Def Con from 2.1604 to 2.1604
Heightened Def Con from 2.1614 to 2.1614
Heightened Def Con from 2.16241 to 2.16241
Heightened Def Con from 2.1634 to 2.1634
Heightened Def Con from 2.1644 to 2.1644
Heightened Def Con from 2.1664 to 2.1664
Heightened Def Con from 2.1674 to 2.1674
Heightened Def Con from 2.1684 to 2.1684
Heightened Def Con from 2.1694 to 2.1694
Heightened Def Con from 2.1704 to 2.1704
Heightened Def Con from 2.17241 to 2.17241
Heightened Def Con from 2.1734 to 2.1734
Heightened Def Con from 2.1754 to 2.1754
Heightened Def Con from 2.1764 to 2.1764
Heightened Def Con from 2.1784 to 2.1784
Heightened Def Con from 2.1804 to 2.1804
Heightened Def Con from 2.1824 to 2.1824
Heightened Def Con from 2.1834 to 2.1834
Heightened Def Con from 2.1844 to 2.1844
Heightened Def Con from 2.1854 to 2.1854
Heightened Def Con from 2.1864 to 2.1864
Heightened Def Con from 2.1884 to 2.1884
Heightened Def Con from 2.1894 to 2.1894
Heightened Def Con from 2.1904 to 2.1904
Heightened Def Con from 2.1914 to 2.1914
Heightened Def Con from 2.1944 to 2.1944
Heightened Def Con from 2.1974 to 2.1974
Heightened Def Con from 2.1984 to 2.1984
Heightened Def Con from 2.1994 to 2.1994
Heightened Def Con from 2.2004 to 2.2004
Heightened Def Con from 2.2014 to 2.2014
Heightened Def Con from 2.2024 to 2.2024
Heightened Def Con from 2.2044 to 2.2044
Heightened Def Con from 2.2054 to 2.2054
Heightened Def Con from 2.2064 to 2.2064
Heightened Def Con from 2.2074 to 2.2074
Heightened Def Con from 2.2104 to 2.2104
Heightened Def Con from 2.2124 to 2.2124
Heightened Def Con from 2.21341 to 2.21341
Heightened Def Con from 2.2144 to 2.2144
Heightened Def Con from 2.2154 to 2.2154
Heightened Def Con from 2.2164 to 2.2164
Heightened Def Con from 2.2174 to 2.2174
Heightened Def Con from 2.2184 to 2.2184
Heightened Def Con from 2.2194 to 2.2194
Heightened Def Con from 2.2224 to 2.2224
Heightened Def Con from 2.2234 to 2.2234
Heightened Def Con from 2.2244 to 2.2244
Heightened Def Con from 2.2254 to 2.2254
Heightened Def Con from 2.2264 to 2.2264
Heightened Def Con from 2.2274 to 2.2274
Heightened Def Con from 2.2284 to 2.2284
Heightened Def Con from 2.2294 to 2.2294
Heightened Def Con from 2.2304 to 2.2304
Heightened Def Con from 2.2314 to 2.2314
Heightened Def Con from 2.2324 to 2.2324
Heightened Def Con from 2.2334 to 2.2334
Heightened Def Con from 2.2344 to 2.2344
Heightened Def Con from 2.2354 to 2.2354
Heightened Def Con from 2.2384 to 2.2384
Heightened Def Con from 2.2404 to 2.2404
Heightened Def Con from 2.2414 to 2.2414
Heightened Def Con from 2.2424 to 2.2424
Heightened Def Con from 2.2434 to 2.2434
Heightened Def Con from 2.2444 to 2.2444
Heightened Def Con from 2.2454 to 2.2454
Heightened Def Con from 2.2464 to 2.2464
Heightened Def Con from 2.2474 to 2.2474
Heightened Def Con from 2.2484 to 2.2484
Heightened Def Con from 2.2494 to 2.2494
Heightened Def Con from 2.2514 to 2.2514
Heightened Def Con from 2.2524 to 2.2524
Heightened Def Con from 2.2554 to 2.2554
Heightened Def Con from 2.2574 to 2.2574
Heightened Def Con from 2.2584 to 2.2584
Heightened Def Con from 2.2594 to 2.2594
Heightened Def Con from 2.2604 to 2.2604
Heightened Def Con from 2.2614 to 2.2614
Heightened Def Con from 2.2624 to 2.2624
Heightened Def Con from 2.2634 to 2.2634
Heightened Def Con from 2.2644 to 2.2644
Heightened Def Con from 2.2654 to 2.2654
Heightened Def Con from 2.2664 to 2.2664
Heightened Def Con from 2.2684 to 2.2684
Heightened Def Con from 2.2694 to 2.2694
Heightened Def Con from 2.2714 to 2.2714
Heightened Def Con from 2.2734 to 2.2734
Heightened Def Con from 2.2754 to 2.2754
Heightened Def Con from 2.2764 to 2.2764
Heightened Def Con from 2.2774 to 2.2774
Heightened Def Con from 2.2784 to 2.2784
Heightened Def Con from 2.2794 to 2.2794
Heightened Def Con from 2.2804 to 2.2804
Heightened Def Con from 2.2814 to 2.2814
Heightened Def Con from 2.2834 to 2.2834
Heightened Def Con from 2.2844 to 2.2844
Heightened Def Con from 2.2854 to 2.2854
Heightened Def Con from 2.2864 to 2.2864
Heightened Def Con from 2.28741 to 2.28741
Heightened Def Con from 2.2884 to 2.2884
Heightened Def Con from 2.2894 to 2.2894
Heightened Def Con from 2.2914 to 2.2914
Heightened Def Con from 2.2944 to 2.2944
Heightened Def Con from 2.2964 to 2.2964
Heightened Def Con from 2.2974 to 2.2974
Heightened Def Con from 2.29941 to 2.29941
Heightened Def Con from 2.3004 to 2.3004
Heightened Def Con from 2.3014 to 2.3014
Heightened Def Con from 2.3044 to 2.3044
Heightened Def Con from 2.3064 to 2.3064
Heightened Def Con from 2.30841 to 2.30841
Heightened Def Con from 2.3104 to 2.3104
Heightened Def Con from 2.3114 to 2.3114
Heightened Def Con from 2.3124 to 2.3124
Heightened Def Con from 2.3134 to 2.3134
Heightened Def Con from 2.3144 to 2.3144
Heightened Def Con from 2.3154 to 2.3154
Heightened Def Con from 2.3174 to 2.3174
Heightened Def Con from 2.3184 to 2.3184
Heightened Def Con from 2.3194 to 2.3194
Heightened Def Con from 2.3214 to 2.3214
Heightened Def Con from 2.3254 to 2.3254
Heightened Def Con from 2.3264 to 2.3264
Heightened Def Con from 2.3284 to 2.3284
Heightened Def Con from 2.3294 to 2.3294
Heightened Def Con from 2.3304 to 2.3304
Heightened Def Con from 2.3324 to 2.3324
Heightened Def Con from 2.3334 to 2.3334
Heightened Def Con from 2.3344 to 2.3344
Heightened Def Con from 2.3364 to 2.3364
Heightened Def Con from 2.3374 to 2.3374
Heightened Def Con from 2.3384 to 2.3384
Heightened Def Con from 2.3394 to 2.3394
Heightened Def Con from 2.3404 to 2.3404
Heightened Def Con from 2.3424 to 2.3424
Heightened Def Con from 2.3434 to 2.3434
Heightened Def Con from 2.3444 to 2.3444
Heightened Def Con from 2.3454 to 2.3454
Heightened Def Con from 2.3464 to 2.3464
Heightened Def Con from 2.3474 to 2.3474
Heightened Def Con from 2.3484 to 2.3484
Heightened Def Con from 2.3494 to 2.3494
Heightened Def Con from 2.3514 to 2.3514
Heightened Def Con from 2.3524 to 2.3524
Heightened Def Con from 2.3564 to 2.3564
Heightened Def Con from 2.3584 to 2.3584
Heightened Def Con from 2.3594 to 2.3594
Heightened Def Con from 2.3604 to 2.3604
Heightened Def Con from 2.3614 to 2.3614
Heightened Def Con from 2.3624 to 2.3624
Heightened Def Con from 2.3634 to 2.3634
Heightened Def Con from 2.3644 to 2.3644
Heightened Def Con from 2.3654 to 2.3654
Heightened Def Con from 2.3664 to 2.3664
Heightened Def Con from 2.3694 to 2.3694
Heightened Def Con from 2.3704 to 2.3704
Heightened Def Con from 2.3714 to 2.3714
Heightened Def Con from 2.3724 to 2.3724
Heightened Def Con from 2.3744 to 2.3744
Heightened Def Con from 2.3754 to 2.3754
Heightened Def Con from 2.3764 to 2.3764
Heightened Def Con from 2.3774 to 2.3774
Heightened Def Con from 2.3784 to 2.3784
Heightened Def Con from 2.3794 to 2.3794
Heightened Def Con from 2.3804 to 2.3804
Heightened Def Con from 2.3834 to 2.3834
Heightened Def Con from 2.3844 to 2.3844
Heightened Def Con from 2.38641 to 2.38641
Heightened Def Con from 2.3874 to 2.3874
Heightened Def Con from 2.3884 to 2.3884
Heightened Def Con from 2.3894 to 2.3894
Heightened Def Con from 2.3904 to 2.3904
Heightened Def Con from 2.3914 to 2.3914
Heightened Def Con from 2.3924 to 2.3924
Heightened Def Con from 2.3944 to 2.3944
Heightened Def Con from 2.3954 to 2.3954
Heightened Def Con from 2.3964 to 2.3964
Heightened Def Con from 2.3974 to 2.3974
Heightened Def Con from 2.3994 to 2.3994
Heightened Def Con from 2.4014 to 2.4014
Heightened Def Con from 2.4024 to 2.4024
Heightened Def Con from 2.4034 to 2.4034
Heightened Def Con from 2.4054 to 2.4054
Heightened Def Con from 2.4084 to 2.4084
Heightened Def Con from 2.4094 to 2.4094
Heightened Def Con from 2.4104 to 2.4104
Heightened Def Con from 2.41241 to 2.41241
Heightened Def Con from 2.4134 to 2.4134
Heightened Def Con from 2.4144 to 2.4144
Heightened Def Con from 2.4154 to 2.4154
Heightened Def Con from 2.4174 to 2.4174
Heightened Def Con from 2.4184 to 2.4184
Heightened Def Con from 2.4194 to 2.4194
Heightened Def Con from 2.4214 to 2.4214
Heightened Def Con from 2.4224 to 2.4224
Heightened Def Con from 2.4234 to 2.4234
Heightened Def Con from 2.4254 to 2.4254
Heightened Def Con from 2.4264 to 2.4264
Heightened Def Con from 2.4274 to 2.4274
Heightened Def Con from 2.4284 to 2.4284
Heightened Def Con from 2.4294 to 2.4294
Heightened Def Con from 2.4304 to 2.4304
Heightened Def Con from 2.4324 to 2.4324
Heightened Def Con from 2.4334 to 2.4334
Heightened Def Con from 2.4344 to 2.4344
Heightened Def Con from 2.4364 to 2.4364
Heightened Def Con from 2.4374 to 2.4374
Heightened Def Con from 2.4384 to 2.4384
Heightened Def Con from 2.4404 to 2.4404
Heightened Def Con from 2.4424 to 2.4424
Heightened Def Con from 2.4434 to 2.4434
Heightened Def Con from 2.4444 to 2.4444
Heightened Def Con from 2.4454 to 2.4454
Heightened Def Con from 2.44641 to 2.44641
Heightened Def Con from 2.4484 to 2.4484
Heightened Def Con from 2.4494 to 2.4494
Heightened Def Con from 2.4524 to 2.4524
Heightened Def Con from 2.4534 to 2.4534
Heightened Def Con from 2.4554 to 2.4554
Heightened Def Con from 2.4564 to 2.4564
Heightened Def Con from 2.4574 to 2.4574
Heightened Def Con from 2.4584 to 2.4584
Heightened Def Con from 2.4594 to 2.4594
Heightened Def Con from 2.4604 to 2.4604
Heightened Def Con from 2.4614 to 2.4614
Heightened Def Con from 2.4624 to 2.4624
Heightened Def Con from 2.4634 to 2.4634
Heightened Def Con from 2.4644 to 2.4644
Heightened Def Con from 2.4654 to 2.4654
Heightened Def Con from 2.4674 to 2.4674
Heightened Def Con from 2.4684 to 2.4684
Heightened Def Con from 2.4694 to 2.4694
Heightened Def Con from 2.4704 to 2.4704
Heightened Def Con from 2.4714 to 2.4714
Heightened Def Con from 2.4724 to 2.4724
Heightened Def Con from 2.4734 to 2.4734
Heightened Def Con from 2.4744 to 2.4744
Heightened Def Con from 2.4754 to 2.4754
Heightened Def Con from 2.4764 to 2.4764
Heightened Def Con from 2.4774 to 2.4774
Heightened Def Con from 2.4784 to 2.4784
Heightened Def Con from 2.4794 to 2.4794
Heightened Def Con from 2.4804 to 2.4804
Heightened Def Con from 2.4814 to 2.4814
Heightened Def Con from 2.4824 to 2.4824
Heightened Def Con from 2.4834 to 2.4834
Heightened Def Con from 2.4844 to 2.4844
Heightened Def Con from 2.4854 to 2.4854
Heightened Def Con from 2.4864 to 2.4864
Heightened Def Con from 2.4884 to 2.4884
Heightened Def Con from 2.4894 to 2.4894
Heightened Def Con from 2.4914 to 2.4914
Heightened Def Con from 2.4954 to 2.4954
Heightened Def Con from 2.4964 to 2.4964
Heightened Def Con from 2.4974 to 2.4974
Heightened Def Con from 2.4984 to 2.4984
Heightened Def Con from 2.4994 to 2.4994
Heightened Def Con from 2.5004 to 2.5004
Heightened Def Con from 2.50141 to 2.50141
Heightened Def Con from 2.5034 to 2.5034
Heightened Def Con from 2.5074 to 2.5074
Heightened Def Con from 2.5084 to 2.5084
Heightened Def Con from 2.5094 to 2.5094
Heightened Def Con from 2.5104 to 2.5104
Heightened Def Con from 2.5124 to 2.5124
Heightened Def Con from 2.5134 to 2.5134
Heightened Def Con from 2.5154 to 2.5154
Heightened Def Con from 2.5164 to 2.5164
Heightened Def Con from 2.5184 to 2.5184
Heightened Def Con from 2.5194 to 2.5194
Heightened Def Con from 2.51941 to 2.51941
Heightened Def Con from 2.5214 to 2.5214
Heightened Def Con from 2.5234 to 2.5234
Heightened Def Con from 2.5244 to 2.5244
Heightened Def Con from 2.5254 to 2.5254
Heightened Def Con from 2.5264 to 2.5264
Heightened Def Con from 2.5274 to 2.5274
Heightened Def Con from 2.5284 to 2.5284
Heightened Def Con from 2.5304 to 2.5304
Heightened Def Con from 2.5314 to 2.5314
Heightened Def Con from 2.5324 to 2.5324
Heightened Def Con from 2.5334 to 2.5334
Heightened Def Con from 2.5354 to 2.5354
Heightened Def Con from 2.5364 to 2.5364
Heightened Def Con from 2.5374 to 2.5374
Heightened Def Con from 2.5384 to 2.5384
Heightened Def Con from 2.5394 to 2.5394
Heightened Def Con from 2.5404 to 2.5404
Heightened Def Con from 2.5414 to 2.5414
Heightened Def Con from 2.5424 to 2.5424
Heightened Def Con from 2.5434 to 2.5434
Heightened Def Con from 2.5444 to 2.5444
Heightened Def Con from 2.5464 to 2.5464
Heightened Def Con from 2.5474 to 2.5474
Heightened Def Con from 2.5494 to 2.5494
Heightened Def Con from 2.5504 to 2.5504
Heightened Def Con from 2.5524 to 2.5524
Heightened Def Con from 2.5544 to 2.5544
Heightened Def Con from 2.5564 to 2.5564
Heightened Def Con from 2.5584 to 2.5584
Heightened Def Con from 2.5594 to 2.5594
Heightened Def Con from 2.5604 to 2.5604
[...]
Heightened Def Con from 9.3414 to 9.3414
Heightened Def Con from 9.3424 to 9.3424
Heightened Def Con from 9.3434 to 9.3434
Heightened Def Con from 9.3464 to 9.3464
Heightened Def Con from 9.3474 to 9.3474
Heightened Def Con from 9.3494 to 9.3494
Heightened Def Con from 9.3504 to 9.3504
Heightened Def Con from 9.3524 to 9.3524
Heightened Def Con from 9.3534 to 9.3534
Heightened Def Con from 9.3544 to 9.3544
Heightened Def Con from 9.3564 to 9.3564
Heightened Def Con from 9.3584 to 9.3584
Heightened Def Con from 9.3594 to 9.3594
Heightened Def Con from 9.3604 to 9.3604
Heightened Def Con from 9.3624 to 9.3624
Heightened Def Con from 9.3644 to 9.3644
Heightened Def Con from 9.3654 to 9.3654
Heightened Def Con from 9.3664 to 9.3664
Heightened Def Con from 9.3684 to 9.3684
Heightened Def Con from 9.3694 to 9.3694
Heightened Def Con from 9.3704 to 9.3704
Heightened Def Con from 9.3714 to 9.3714
Heightened Def Con from 9.3744 to 9.3744
Heightened Def Con from 9.3754 to 9.3754
Heightened Def Con from 9.3764 to 9.3764
Heightened Def Con from 9.3784 to 9.3784
Heightened Def Con from 9.3814 to 9.3814
Heightened Def Con from 9.3834 to 9.3834
Heightened Def Con from 9.3844 to 9.3844
Heightened Def Con from 9.3864 to 9.3864
Heightened Def Con from 9.3874 to 9.3874
Heightened Def Con from 9.3884 to 9.3884
Heightened Def Con from 9.3894 to 9.3894
Heightened Def Con from 9.3904 to 9.3904
Heightened Def Con from 9.3914 to 9.3914
Heightened Def Con from 9.3934 to 9.3934
Heightened Def Con from 9.3944 to 9.3944
Heightened Def Con from 9.3954 to 9.3954
Heightened Def Con from 9.3964 to 9.3964
Heightened Def Con from 9.3974 to 9.3974
Heightened Def Con from 9.3984 to 9.3984
Heightened Def Con from 9.3994 to 9.3994
Heightened Def Con from 9.4004 to 9.4004
Heightened Def Con from 9.4024 to 9.4024
Heightened Def Con from 9.4034 to 9.4034
Heightened Def Con from 9.40441 to 9.40441
Heightened Def Con from 9.4054 to 9.4054
Heightened Def Con from 9.4064 to 9.4064
Heightened Def Con from 9.4074 to 9.4074
Heightened Def Con from 9.40841 to 9.40841
Heightened Def Con from 9.4104 to 9.4104
Heightened Def Con from 9.4124 to 9.4124
Heightened Def Con from 9.4134 to 9.4134
Heightened Def Con from 9.4144 to 9.4144
Heightened Def Con from 9.4154 to 9.4154
Heightened Def Con from 9.4184 to 9.4184
Heightened Def Con from 9.41941 to 9.41941
Heightened Def Con from 9.4214 to 9.4214
Heightened Def Con from 9.4224 to 9.4224
Heightened Def Con from 9.4234 to 9.4234
Heightened Def Con from 9.4244 to 9.4244
Heightened Def Con from 9.4264 to 9.4264
Heightened Def Con from 9.4274 to 9.4274
Heightened Def Con from 9.4284 to 9.4284
Heightened Def Con from 9.4294 to 9.4294
Heightened Def Con from 9.4304 to 9.4304
Heightened Def Con from 9.4314 to 9.4314
Heightened Def Con from 9.4334 to 9.4334
Heightened Def Con from 9.4344 to 9.4344
Heightened Def Con from 9.4354 to 9.4354
Heightened Def Con from 9.4364 to 9.4364
Heightened Def Con from 9.4374 to 9.4374
Heightened Def Con from 9.4384 to 9.4384
Heightened Def Con from 9.4414 to 9.4414
Heightened Def Con from 9.4424 to 9.4424
Heightened Def Con from 9.4434 to 9.4434
Heightened Def Con from 9.4464 to 9.4464
Heightened Def Con from 9.4474 to 9.4474
Heightened Def Con from 9.4484 to 9.4484
Heightened Def Con from 9.4494 to 9.4494
Heightened Def Con from 9.4514 to 9.4514
Heightened Def Con from 9.45241 to 9.45241
Heightened Def Con from 9.4554 to 9.4554
Heightened Def Con from 9.4564 to 9.4564
Heightened Def Con from 9.4574 to 9.4574
Heightened Def Con from 9.4584 to 9.4584
Heightened Def Con from 9.4594 to 9.4594
Heightened Def Con from 9.4604 to 9.4604
Heightened Def Con from 9.4614 to 9.4614
Heightened Def Con from 9.4624 to 9.4624
Heightened Def Con from 9.4634 to 9.4634
Heightened Def Con from 9.4654 to 9.4654
Heightened Def Con from 9.4664 to 9.4664
Heightened Def Con from 9.4674 to 9.4674
Heightened Def Con from 9.4684 to 9.4684
Heightened Def Con from 9.46941 to 9.46941
Heightened Def Con from 9.4704 to 9.4704
Heightened Def Con from 9.4714 to 9.4714
Heightened Def Con from 9.4724 to 9.4724
Heightened Def Con from 9.4734 to 9.4734
Heightened Def Con from 9.47341 to 9.47341
Heightened Def Con from 9.4744 to 9.4744
Heightened Def Con from 9.4754 to 9.4754
Heightened Def Con from 9.4764 to 9.4764
Heightened Def Con from 9.4774 to 9.4774
Heightened Def Con from 9.4784 to 9.4784
Heightened Def Con from 9.4814 to 9.4814
Heightened Def Con from 9.4824 to 9.4824
Heightened Def Con from 9.4844 to 9.4844
Heightened Def Con from 9.4864 to 9.4864
Heightened Def Con from 9.48741 to 9.48741
Heightened Def Con from 9.4884 to 9.4884
Heightened Def Con from 9.4894 to 9.4894
Heightened Def Con from 9.4924 to 9.4924
Heightened Def Con from 9.4934 to 9.4934
Heightened Def Con from 9.4944 to 9.4944
Heightened Def Con from 9.4954 to 9.4954
Heightened Def Con from 9.4984 to 9.4984
Heightened Def Con from 9.4994 to 9.4994
Heightened Def Con from 9.5004 to 9.5004
Heightened Def Con from 9.5044 to 9.5044
Heightened Def Con from 9.5054 to 9.5054
Heightened Def Con from 9.5064 to 9.5064
Heightened Def Con from 9.5084 to 9.5084
Heightened Def Con from 9.5094 to 9.5094
Heightened Def Con from 9.5104 to 9.5104
Heightened Def Con from 9.5114 to 9.5114
Heightened Def Con from 9.5124 to 9.5124
Heightened Def Con from 9.5134 to 9.5134
Heightened Def Con from 9.5184 to 9.5184
Heightened Def Con from 9.5204 to 9.5204
Heightened Def Con from 9.5244 to 9.5244
Heightened Def Con from 9.5254 to 9.5254
Heightened Def Con from 9.5264 to 9.5264
Heightened Def Con from 9.5284 to 9.5284
Heightened Def Con from 9.5304 to 9.5304
Heightened Def Con from 9.5314 to 9.5314
Heightened Def Con from 9.5324 to 9.5324
Heightened Def Con from 9.5334 to 9.5334
Heightened Def Con from 9.5354 to 9.5354
Heightened Def Con from 9.5364 to 9.5364
Heightened Def Con from 9.5384 to 9.5384
Heightened Def Con from 9.5394 to 9.5394
Heightened Def Con from 9.5404 to 9.5404
Heightened Def Con from 9.5414 to 9.5414
Heightened Def Con from 9.5424 to 9.5424
Heightened Def Con from 9.5434 to 9.5434
Heightened Def Con from 9.5444 to 9.5444
Heightened Def Con from 9.5454 to 9.5454
Heightened Def Con from 9.5464 to 9.5464
Heightened Def Con from 9.5474 to 9.5474
Heightened Def Con from 9.5484 to 9.5484
Heightened Def Con from 9.5494 to 9.5494
Heightened Def Con from 9.5504 to 9.5504
Heightened Def Con from 9.5524 to 9.5524
Heightened Def Con from 9.5534 to 9.5534
Heightened Def Con from 9.5544 to 9.5544
Heightened Def Con from 9.5554 to 9.5554
Heightened Def Con from 9.5564 to 9.5564
Heightened Def Con from 9.5574 to 9.5574
Heightened Def Con from 9.5584 to 9.5584
Heightened Def Con from 9.5594 to 9.5594
Heightened Def Con from 9.5604 to 9.5604
Heightened Def Con from 9.5614 to 9.5614
Heightened Def Con from 9.5624 to 9.5624
Heightened Def Con from 9.5634 to 9.5634
Heightened Def Con from 9.5654 to 9.5654
Heightened Def Con from 9.5664 to 9.5664
Heightened Def Con from 9.5674 to 9.5674
Heightened Def Con from 9.5684 to 9.5684
Heightened Def Con from 9.5694 to 9.5694
Heightened Def Con from 9.5704 to 9.5704
Heightened Def Con from 9.5714 to 9.5714
Heightened Def Con from 9.5724 to 9.5724
Heightened Def Con from 9.5734 to 9.5734
Heightened Def Con from 9.5744 to 9.5744
Heightened Def Con from 9.5754 to 9.5754
Heightened Def Con from 9.5764 to 9.5764
Heightened Def Con from 9.5774 to 9.5774
Heightened Def Con from 9.5784 to 9.5784
Heightened Def Con from 9.5794 to 9.5794
Heightened Def Con from 9.5804 to 9.5804
Heightened Def Con from 9.5814 to 9.5814
Heightened Def Con from 9.5824 to 9.5824
Heightened Def Con from 9.5834 to 9.5834
Heightened Def Con from 9.5854 to 9.5854
Heightened Def Con from 9.5864 to 9.5864
Heightened Def Con from 9.58941 to 9.58941
Heightened Def Con from 9.5914 to 9.5914
Heightened Def Con from 9.5924 to 9.5924
Heightened Def Con from 9.5934 to 9.5934
Heightened Def Con from 9.5944 to 9.5944
Heightened Def Con from 9.5954 to 9.5954
Heightened Def Con from 9.5984 to 9.5984
Heightened Def Con from 9.6004 to 9.6004
Heightened Def Con from 9.6014 to 9.6014
Heightened Def Con from 9.6034 to 9.6034
Heightened Def Con from 9.6054 to 9.6054
Heightened Def Con from 9.6074 to 9.6074
Heightened Def Con from 9.6084 to 9.6084
Heightened Def Con from 9.6114 to 9.6114
Heightened Def Con from 9.6124 to 9.6124
Heightened Def Con from 9.6144 to 9.6144
Heightened Def Con from 9.6154 to 9.6154
Heightened Def Con from 9.6164 to 9.6164
Heightened Def Con from 9.6174 to 9.6174
Heightened Def Con from 9.6184 to 9.6184
Heightened Def Con from 9.6214 to 9.6214
Heightened Def Con from 9.6234 to 9.6234
Heightened Def Con from 9.6244 to 9.6244
Heightened Def Con from 9.6284 to 9.6284
Heightened Def Con from 9.6294 to 9.6294
Heightened Def Con from 9.6304 to 9.6304
Heightened Def Con from 9.6314 to 9.6314
Heightened Def Con from 9.6324 to 9.6324
Heightened Def Con from 9.6334 to 9.6334
Heightened Def Con from 9.6344 to 9.6344
Heightened Def Con from 9.6354 to 9.6354
Heightened Def Con from 9.6364 to 9.6364
Heightened Def Con from 9.6374 to 9.6374
Heightened Def Con from 9.6384 to 9.6384
Heightened Def Con from 9.6394 to 9.6394
Heightened Def Con from 9.6414 to 9.6414
Heightened Def Con from 9.6444 to 9.6444
Heightened Def Con from 9.6474 to 9.6474
Heightened Def Con from 9.6484 to 9.6484
Heightened Def Con from 9.6504 to 9.6504
Heightened Def Con from 9.6514 to 9.6514
Heightened Def Con from 9.6524 to 9.6524
Heightened Def Con from 9.6534 to 9.6534
Heightened Def Con from 9.6544 to 9.6544
Heightened Def Con from 9.6564 to 9.6564
Heightened Def Con from 9.6574 to 9.6574
Heightened Def Con from 9.6584 to 9.6584
Heightened Def Con from 9.6594 to 9.6594
Heightened Def Con from 9.6614 to 9.6614
Heightened Def Con from 9.6624 to 9.6624
Heightened Def Con from 9.6634 to 9.6634
Heightened Def Con from 9.6644 to 9.6644
Heightened Def Con from 9.6654 to 9.6654
Heightened Def Con from 9.66641 to 9.66641
Heightened Def Con from 9.6674 to 9.6674
Heightened Def Con from 9.6684 to 9.6684
Heightened Def Con from 9.6704 to 9.6704
Heightened Def Con from 9.6714 to 9.6714
Heightened Def Con from 9.6724 to 9.6724
Heightened Def Con from 9.6734 to 9.6734
Heightened Def Con from 9.6754 to 9.6754
Heightened Def Con from 9.6764 to 9.6764
Heightened Def Con from 9.6784 to 9.6784
Heightened Def Con from 9.67941 to 9.67941
Heightened Def Con from 9.6804 to 9.6804
Heightened Def Con from 9.6814 to 9.6814
Heightened Def Con from 9.6824 to 9.6824
Heightened Def Con from 9.6834 to 9.6834
Heightened Def Con from 9.6844 to 9.6844
Heightened Def Con from 9.6854 to 9.6854
Heightened Def Con from 9.6864 to 9.6864
Heightened Def Con from 9.6884 to 9.6884
Heightened Def Con from 9.6904 to 9.6904
Heightened Def Con from 9.6924 to 9.6924
Heightened Def Con from 9.6934 to 9.6934
Heightened Def Con from 9.6944 to 9.6944
Heightened Def Con from 9.6954 to 9.6954
Heightened Def Con from 9.6964 to 9.6964
Heightened Def Con from 9.6974 to 9.6974
Heightened Def Con from 9.6984 to 9.6984
Heightened Def Con from 9.6994 to 9.6994
Heightened Def Con from 9.7004 to 9.7004
Heightened Def Con from 9.7014 to 9.7014
Heightened Def Con from 9.7034 to 9.7034
Heightened Def Con from 9.7044 to 9.7044
Heightened Def Con from 9.7054 to 9.7054
Heightened Def Con from 9.7074 to 9.7074
Heightened Def Con from 9.7094 to 9.7094
Heightened Def Con from 9.7104 to 9.7104
Heightened Def Con from 9.7114 to 9.7114
Heightened Def Con from 9.7144 to 9.7144
Heightened Def Con from 9.7154 to 9.7154
Heightened Def Con from 9.7164 to 9.7164
Heightened Def Con from 9.7174 to 9.7174
Heightened Def Con from 9.7184 to 9.7184
Heightened Def Con from 9.7194 to 9.7194
Heightened Def Con from 9.7244 to 9.7244
Heightened Def Con from 9.7254 to 9.7254
Heightened Def Con from 9.7264 to 9.7264
Heightened Def Con from 9.7274 to 9.7274
Heightened Def Con from 9.7284 to 9.7284
Heightened Def Con from 9.7294 to 9.7294
Heightened Def Con from 9.7304 to 9.7304
Heightened Def Con from 9.7314 to 9.7314
Heightened Def Con from 9.7324 to 9.7324
Heightened Def Con from 9.7334 to 9.7334
Heightened Def Con from 9.7364 to 9.7364
Heightened Def Con from 9.7374 to 9.7374
Heightened Def Con from 9.7384 to 9.7384
Heightened Def Con from 9.7394 to 9.7394
Heightened Def Con from 9.7404 to 9.7404
Heightened Def Con from 9.7414 to 9.7414
Heightened Def Con from 9.7454 to 9.7454
Heightened Def Con from 9.7464 to 9.7464
Heightened Def Con from 9.7474 to 9.7474
Heightened Def Con from 9.7484 to 9.7484
Heightened Def Con from 9.7494 to 9.7494
Heightened Def Con from 9.7534 to 9.7534
Heightened Def Con from 9.7554 to 9.7554
Heightened Def Con from 9.7574 to 9.7574
Heightened Def Con from 9.7584 to 9.7584
Heightened Def Con from 9.7594 to 9.7594
Heightened Def Con from 9.7624 to 9.7624
Heightened Def Con from 9.7634 to 9.7634
Heightened Def Con from 9.7654 to 9.7654
Heightened Def Con from 9.76641 to 9.76641
Heightened Def Con from 9.7684 to 9.7684
Heightened Def Con from 9.7694 to 9.7694
Heightened Def Con from 9.7734 to 9.7734
Heightened Def Con from 9.7754 to 9.7754
Heightened Def Con from 9.7764 to 9.7764
Heightened Def Con from 9.7774 to 9.7774
Heightened Def Con from 9.7784 to 9.7784
Heightened Def Con from 9.7794 to 9.7794
Heightened Def Con from 9.7814 to 9.7814
Heightened Def Con from 9.7834 to 9.7834
Heightened Def Con from 9.7844 to 9.7844
Heightened Def Con from 9.7864 to 9.7864
Heightened Def Con from 9.7874 to 9.7874
Heightened Def Con from 9.7884 to 9.7884
Heightened Def Con from 9.7894 to 9.7894
Heightened Def Con from 9.7914 to 9.7914
Heightened Def Con from 9.7924 to 9.7924
Heightened Def Con from 9.7934 to 9.7934
Heightened Def Con from 9.7944 to 9.7944
Heightened Def Con from 9.7954 to 9.7954
Heightened Def Con from 9.7974 to 9.7974
Heightened Def Con from 9.7984 to 9.7984
Heightened Def Con from 9.8004 to 9.8004
Heightened Def Con from 9.8014 to 9.8014
Heightened Def Con from 9.8024 to 9.8024
Heightened Def Con from 9.8034 to 9.8034
Heightened Def Con from 9.8044 to 9.8044
Heightened Def Con from 9.8064 to 9.8064
Heightened Def Con from 9.8074 to 9.8074
Heightened Def Con from 9.8084 to 9.8084
Heightened Def Con from 9.8104 to 9.8104
Heightened Def Con from 9.8124 to 9.8124
Heightened Def Con from 9.8134 to 9.8134
Heightened Def Con from 9.8144 to 9.8144
Heightened Def Con from 9.8174 to 9.8174
Heightened Def Con from 9.8184 to 9.8184
Heightened Def Con from 9.8194 to 9.8194
Heightened Def Con from 9.8204 to 9.8204
Heightened Def Con from 9.8214 to 9.8214
Heightened Def Con from 9.8234 to 9.8234
Heightened Def Con from 9.8244 to 9.8244
Heightened Def Con from 9.8254 to 9.8254
Heightened Def Con from 9.8264 to 9.8264
Heightened Def Con from 9.8274 to 9.8274
Heightened Def Con from 9.8284 to 9.8284
Heightened Def Con from 9.8294 to 9.8294
Heightened Def Con from 9.8304 to 9.8304
Heightened Def Con from 9.83141 to 9.83141
Heightened Def Con from 9.8324 to 9.8324
Heightened Def Con from 9.8344 to 9.8344
Heightened Def Con from 9.8364 to 9.8364
Heightened Def Con from 9.8374 to 9.8374
Heightened Def Con from 9.8384 to 9.8384
Heightened Def Con from 9.83941 to 9.83941
Heightened Def Con from 9.8404 to 9.8404
Heightened Def Con from 9.8414 to 9.8414
Heightened Def Con from 9.84241 to 9.84241
Heightened Def Con from 9.8434 to 9.8434
Heightened Def Con from 9.8444 to 9.8444
Heightened Def Con from 9.8454 to 9.8454
Heightened Def Con from 9.8464 to 9.8464
Heightened Def Con from 9.8474 to 9.8474
Heightened Def Con from 9.8494 to 9.8494
Heightened Def Con from 9.8524 to 9.8524
Heightened Def Con from 9.8554 to 9.8554
Heightened Def Con from 9.8564 to 9.8564
Heightened Def Con from 9.8574 to 9.8574
Heightened Def Con from 9.8584 to 9.8584
Heightened Def Con from 9.8604 to 9.8604
Heightened Def Con from 9.8624 to 9.8624
Heightened Def Con from 9.8634 to 9.8634
Heightened Def Con from 9.8644 to 9.8644
Heightened Def Con from 9.8664 to 9.8664
Heightened Def Con from 9.8684 to 9.8684
Heightened Def Con from 9.8714 to 9.8714
Heightened Def Con from 9.8744 to 9.8744
Heightened Def Con from 9.8754 to 9.8754
Heightened Def Con from 9.8764 to 9.8764
Heightened Def Con from 9.8774 to 9.8774
Heightened Def Con from 9.8794 to 9.8794
Heightened Def Con from 9.8814 to 9.8814
Heightened Def Con from 9.8824 to 9.8824
Heightened Def Con from 9.8834 to 9.8834
Heightened Def Con from 9.8854 to 9.8854
Heightened Def Con from 9.8864 to 9.8864
Heightened Def Con from 9.8874 to 9.8874
Heightened Def Con from 9.8884 to 9.8884
Heightened Def Con from 9.8894 to 9.8894
Heightened Def Con from 9.8904 to 9.8904
Heightened Def Con from 9.8914 to 9.8914
Heightened Def Con from 9.8924 to 9.8924
Heightened Def Con from 9.8934 to 9.8934
Heightened Def Con from 9.8944 to 9.8944
Heightened Def Con from 9.8954 to 9.8954
Heightened Def Con from 9.8964 to 9.8964
Heightened Def Con from 9.8974 to 9.8974
Heightened Def Con from 9.89941 to 9.89941
Heightened Def Con from 9.9004 to 9.9004
Heightened Def Con from 9.9014 to 9.9014
Heightened Def Con from 9.9064 to 9.9064
Heightened Def Con from 9.9074 to 9.9074
Heightened Def Con from 9.90841 to 9.90841
Heightened Def Con from 9.9094 to 9.9094
Heightened Def Con from 9.9104 to 9.9104
Heightened Def Con from 9.9154 to 9.9154
Heightened Def Con from 9.9164 to 9.9164
Heightened Def Con from 9.9174 to 9.9174
Heightened Def Con from 9.9184 to 9.9184
Heightened Def Con from 9.9204 to 9.9204
Heightened Def Con from 9.9234 to 9.9234
Heightened Def Con from 9.9254 to 9.9254
Heightened Def Con from 9.9284 to 9.9284
Heightened Def Con from 9.9294 to 9.9294
Heightened Def Con from 9.9304 to 9.9304
Heightened Def Con from 9.9314 to 9.9314
Heightened Def Con from 9.9324 to 9.9324
Heightened Def Con from 9.9334 to 9.9334
Heightened Def Con from 9.9344 to 9.9344
Heightened Def Con from 9.9354 to 9.9354
Heightened Def Con from 9.9364 to 9.9364
Heightened Def Con from 9.9374 to 9.9374
Heightened Def Con from 9.9384 to 9.9384
Heightened Def Con from 9.9394 to 9.9394
Heightened Def Con from 9.9404 to 9.9404
Heightened Def Con from 9.9434 to 9.9434
Heightened Def Con from 9.9444 to 9.9444
Heightened Def Con from 9.9454 to 9.9454
Heightened Def Con from 9.9464 to 9.9464
Heightened Def Con from 9.9484 to 9.9484
Heightened Def Con from 9.9504 to 9.9504
Heightened Def Con from 9.9514 to 9.9514
Heightened Def Con from 9.9524 to 9.9524
Heightened Def Con from 9.9534 to 9.9534
Heightened Def Con from 9.9544 to 9.9544
Heightened Def Con from 9.9564 to 9.9564
Heightened Def Con from 9.9574 to 9.9574
Heightened Def Con from 9.9584 to 9.9584
Heightened Def Con from 9.9594 to 9.9594
Heightened Def Con from 9.9604 to 9.9604
Heightened Def Con from 9.9634 to 9.9634
Heightened Def Con from 9.9644 to 9.9644
Heightened Def Con from 9.9654 to 9.9654
Heightened Def Con from 9.9664 to 9.9664
Heightened Def Con from 9.9694 to 9.9694
Heightened Def Con from 9.9734 to 9.9734
Heightened Def Con from 9.9754 to 9.9754
Heightened Def Con from 9.9784 to 9.9784
Heightened Def Con from 9.9794 to 9.9794
Heightened Def Con from 9.9824 to 9.9824
Heightened Def Con from 9.9834 to 9.9834
Heightened Def Con from 9.9844 to 9.9844
Heightened Def Con from 9.9854 to 9.9854
Heightened Def Con from 9.9884 to 9.9884
Heightened Def Con from 9.9894 to 9.9894
Heightened Def Con from 9.9904 to 9.9904
Heightened Def Con from 9.9914 to 9.9914
Heightened Def Con from 9.9924 to 9.9924
Heightened Def Con from 9.99341 to 9.99341
Heightened Def Con from 9.9944 to 9.9944
Heightened Def Con from 9.9954 to 9.9954
Heightened Def Con from 9.9964 to 9.9964
Heightened Def Con from 9.9974 to 9.9974
Heightened Def Con from 9.9984 to 9.9984
Heightened Def Con from 9.9994 to 9.9994

Date: Fri Nov  1 23:06:26 2024
Total elapsed time: 60.422 seconds.

tnom = 27
temp = 27
method = Gear
totiter = 10565722
traniter = 10565304
tranpoints = 2857056
accept = 2002151
rejected = 862201
matrix size = 13
fillins = 3
solver = Normal
Avg thread counts: 1.0/1.0/1.0/1.0
Matrix Compiler1: 804 bytes object code size  0.5/0.2/[0.2]
Matrix Compiler2: off  [0.2]/0.2/0.3

