Circuit: * C:\Users\Daniel Hoefer\Documents\Toyota Satoshi Emblem\GitHub\FIC Board\FIC Board\LTSpice\Draft13.asc

Direct Newton iteration for .op point succeeded.

Date: Mon Dec  9 14:32:29 2024
Total elapsed time: 0.026 seconds.

tnom = 27
temp = 27
method = Gear
totiter = 3
traniter = 0
tranpoints = 0
accept = 0
rejected = 0
matrix size = 12
fillins = 3
solver = Normal
Avg thread counts: 16.0/0.0/16.0/5.6
Matrix Compiler1:      40 opcodes
Matrix Compiler2: 1.19 KB object code size
