Circuit: * C:\Users\Daniel Hoefer\Documents\Toyota Satoshi Emblem\GitHub\FIC Board\FIC Board\LTSpice\Draft9.asc

Direct Newton iteration for .op point succeeded.
Heightened Def Con from 7.86017e-06 to 7.86017e-06

Date: Thu Jan 16 17:35:03 2025
Total elapsed time: 12.093 seconds.

tnom = 27
temp = 27
method = Gear
totiter = 208833
traniter = 208828
tranpoints = 36300
accept = 27243
rejected = 9058
matrix size = 619
fillins = 877
solver = Normal
Avg thread counts: 2.0/2.0/1.1/1.0
Matrix Compiler1: 80.11 KB object code size  21.1/10.1/[9.5]
Matrix Compiler2: 67.02 KB object code size  6.4/7.1/[5.0]

