Circuit: * C:\Users\Daniel Hoefer\Documents\Toyota Satoshi Emblem\GitHub\FIC Board\FIC Board\LTSpice\Draft14.asc

Direct Newton iteration failed to find .op point.  (Use ".option noopiter" to skip.)
Starting Gmin stepping
Gmin = 10
Gmin = 1.07374
vernier = 0.5
vernier = 0.25
vernier = 0.125
vernier = 0.0625
Gmin = 1.15289
vernier = 0.03125
Gmin = 1.0585
vernier = 0.015625
vernier = 0.0208333
vernier = 0.0104167
Gmin = 1.04074
vernier = 0.00520833
vernier = 0.00694444
vernier = 0.00347222
Gmin = 1.03131
vernier = 0.00462963
vernier = 0.00231481
Gmin = 1.02447
vernier = 0.00308642
vernier = 0.00154321
Gmin = 1.01954
vernier = 0.00205761
vernier = 0.00102881
Gmin = 1.01627
vernier = 0.00137174
vernier = 0.00068587
Gmin = 1.01375
vernier = 0.000914493
Gmin = 1.01172
vernier = 0.00121932
vernier = 0.000609662
vernier = 0.000812882
Gmin = 1.01031
vernier = 0.000406441
vernier = 0.000541921
Gmin = 1.00946
vernier = 0.000722562
vernier = 0.000541921
vernier = 0.000406441
Gmin = 1.00864
vernier = 0.000541921
vernier = 0.000406441
Gmin = 1.00782
vernier = 0.000541921
vernier = 0.000406441
Gmin = 0
Gmin stepping failed

Starting source stepping with srcstepmethod=0
Source Step = 3.0303%
vernier = 0.25
Source Step = 4.55729%
vernier = 0.000976562
Source Step = 4.57505%
Source Step = 4.60464%
Source Step = 4.63423%
Source Step = 4.66383%
Source Step = 4.69342%
vernier = 0.00146484
Source Step = 4.73337%
Source Step = 4.77776%
Source Step = 4.82215%
Source Step = 4.86654%
Source Step = 4.91093%
vernier = 0.00219727
Source Step = 4.96863%
Source Step = 5.03522%
Source Step = 5.1018%
Source Step = 5.16838%
Source Step = 5.23497%
vernier = 0.0032959
Source Step = 5.3182%
Source Step = 5.41807%
Source Step = 5.51795%
Source Step = 5.61782%
Source Step = 5.7177%
vernier = 0.00494385
Source Step = 5.83755%
Source Step = 5.98736%
Source Step = 6.13718%
Source Step = 6.28699%
Source Step = 6.4368%
vernier = 0.00741577
Source Step = 6.60909%
Source Step = 6.83381%
Source Step = 7.05853%
Source Step = 7.28325%
Source Step = 7.50797%
vernier = 0.0111237
Source Step = 7.75516%
Source Step = 8.09224%
Source Step = 8.42932%
Source Step = 8.76641%
Source Step = 9.10349%
vernier = 0.0166855
Source Step = 9.45742%
Source Step = 9.96304%
Source Step = 10.4687%
Source Step = 10.9743%
Source Step = 11.4799%
Source Step = 11.9855%
vernier = 0.0250282
Source Step = 12.744%
Source Step = 13.5024%
Source Step = 14.2608%
Source Step = 15.0192%
Source Step = 15.7777%
vernier = 0.0375423
Source Step = 16.8774%
Source Step = 18.0151%
Source Step = 19.1527%
Source Step = 20.2903%
Source Step = 21.428%
vernier = 0.0563135
Source Step = 23.0207%
Source Step = 24.7272%
Source Step = 26.4336%
Source Step = 28.1401%
Source Step = 29.8466%
vernier = 0.0844703
Source Step = 32.1503%
Source Step = 34.71%
Source Step = 37.2697%
Source Step = 39.8294%
Source Step = 42.3891%
vernier = 0.126705
Source Step = 45.7168%
Source Step = 49.5563%
Source Step = 53.3959%
Source Step = 57.2354%
Source Step = 61.075%
vernier = 0.190058
Source Step = 65.8744%
Source Step = 71.6338%
Source Step = 77.3931%
Source Step = 83.1524%
Source Step = 88.9118%
vernier = 0.285087
Source Step = 92.3809%
Source Step = 92.5159%
Source Step = 92.6508%
Source Step = 92.7858%
Source Step = 92.9208%
Source Step = 93.0558%
vernier = 0.00668173
Source Step = 93.2583%
Source Step = 93.4608%
Source Step = 93.6632%
Source Step = 93.8657%
Source Step = 94.0682%
vernier = 0.0100226
Source Step = 94.3618%
Source Step = 94.6655%
Source Step = 94.9692%
Source Step = 95.2729%
Source Step = 95.5766%
vernier = 0.0150339
Source Step = 96.0018%
Source Step = 96.4574%
Source Step = 96.913%
Source Step = 97.3686%
Source Step = 97.8241%
vernier = 0.0225508
Source Step = 98.4391%
Source Step = 99.1225%
Source Step = 99.8059%
Source stepping succeeded in finding the operating point.


Date: Mon Dec  9 16:05:11 2024
Total elapsed time: 0.438 seconds.

tnom = 27
temp = 27
method = Gear
totiter = 29291
traniter = 14989
tranpoints = 5902
accept = 5028
rejected = 874
matrix size = 30
fillins = 32
solver = Normal
Avg thread counts: 1.1/1.2/1.2/1.1
Matrix Compiler1: 4.18 KB object code size  0.9/0.4/[0.4]
Matrix Compiler2: off  [0.3]/0.3/0.4

