Circuit: * C:\Users\Daniel Hoefer\Documents\Toyota Satoshi Emblem\GitHub\FIC Board\FIC Board\LTSpice\Draft5.asc

Direct Newton iteration for .op point succeeded.

Date: Fri Nov  1 22:44:54 2024
Total elapsed time: 0.119 seconds.

tnom = 27
temp = 27
method = Gear
totiter = 20
traniter = 0
tranpoints = 0
accept = 0
rejected = 0
matrix size = 18
fillins = 11
solver = Normal
Avg thread counts: 16.0/0.0/16.0/6.2
Matrix Compiler1:      96 opcodes
Matrix Compiler2: 2.08 KB object code size
