Circuit: * C:\Users\Daniel Hoefer\Documents\Toyota Satoshi Emblem\GitHub\FIC Board\FIC Board\LTSpice\Draft10.asc

Direct Newton iteration for .op point succeeded.

Date: Sat Nov 16 23:59:36 2024
Total elapsed time: 0.205 seconds.

tnom = 27
temp = 27
method = Gear
totiter = 14348
traniter = 14336
tranpoints = 5387
accept = 4595
rejected = 792
matrix size = 15
fillins = 0
solver = Normal
Avg thread counts: 1.1/1.3/1.3/1.1
Matrix Compiler1: off  [0.2]/0.4/0.6
Matrix Compiler2: off  [0.2]/1.4/0.5

