Circuit: * C:\Users\Daniel Hoefer\Documents\Toyota Satoshi Emblem\GitHub\FIC Board\FIC Board\LTSpice\Draft2.asc

Direct Newton iteration for .op point succeeded.

Date: Mon Sep 25 17:41:01 2023
Total elapsed time: 0.116 seconds.

tnom = 27
temp = 27
method = Gear
totiter = 2091
traniter = 2088
tranpoints = 1045
accept = 1045
rejected = 0
matrix size = 12
fillins = 7
solver = Normal
Avg thread counts: 1.7/2.3/2.3/1.7
Matrix Compiler1: 1.29 KB object code size  1.4/0.8/[0.7]
Matrix Compiler2: off  [0.4]/0.7/0.5

