Circuit: * C:\Users\Daniel Hoefer\Documents\Toyota Satoshi Emblem\GitHub\FIC Board\FIC Board\LTSpice\Draft7.asc

Limiting rise time of source v2 to 3.25e-07
Limiting fall time of source v2 to 3.25e-07
Direct Newton iteration for .op point succeeded.
.step temp=-40°C
.step temp=-35°C
.step temp=-30°C
.step temp=-25°C
.step temp=-20°C
.step temp=-15°C
.step temp=-10°C
.step temp=-5°C
.step temp=0°C
.step temp=5°C
.step temp=10°C
.step temp=15°C
.step temp=20°C
.step temp=25°C
.step temp=30°C
.step temp=35°C
.step temp=40°C
.step temp=45°C
.step temp=50°C
.step temp=55°C
.step temp=60°C
.step temp=65°C
.step temp=70°C
.step temp=75°C
.step temp=80°C
.step temp=85°C


Measurement: vout_avg
  step	AVG(v(vout))	FROM	TO
     1	100.576	0.005	0.01
     2	100.597	0.005	0.01
     3	100.619	0.005	0.01
     4	100.64	0.005	0.01
     5	100.662	0.005	0.01
     6	100.683	0.005	0.01
     7	100.703	0.005	0.01
     8	100.725	0.005	0.01
     9	100.746	0.005	0.01
    10	100.766	0.005	0.01
    11	100.786	0.005	0.01
    12	100.806	0.005	0.01
    13	100.827	0.005	0.01
    14	100.846	0.005	0.01
    15	100.866	0.005	0.01
    16	100.886	0.005	0.01
    17	100.907	0.005	0.01
    18	100.926	0.005	0.01
    19	100.946	0.005	0.01
    20	100.966	0.005	0.01
    21	100.986	0.005	0.01
    22	101.005	0.005	0.01
    23	101.024	0.005	0.01
    24	101.044	0.005	0.01
    25	101.063	0.005	0.01
    26	101.083	0.005	0.01

Measurement: vout_max
  step	MAX(v(vout))	FROM	TO
     1	101.411	0.005	0.01
     2	101.423	0.005	0.01
     3	101.438	0.005	0.01
     4	101.454	0.005	0.01
     5	101.472	0.005	0.01
     6	101.485	0.005	0.01
     7	101.499	0.005	0.01
     8	101.518	0.005	0.01
     9	101.532	0.005	0.01
    10	101.549	0.005	0.01
    11	101.564	0.005	0.01
    12	101.578	0.005	0.01
    13	101.595	0.005	0.01
    14	101.612	0.005	0.01
    15	101.627	0.005	0.01
    16	101.645	0.005	0.01
    17	101.663	0.005	0.01
    18	101.677	0.005	0.01
    19	101.695	0.005	0.01
    20	101.712	0.005	0.01
    21	101.729	0.005	0.01
    22	101.742	0.005	0.01
    23	101.762	0.005	0.01
    24	101.781	0.005	0.01
    25	101.798	0.005	0.01
    26	101.815	0.005	0.01

Measurement: vout_min
  step	MIN(v(vout))	FROM	TO
     1	99.7281	0.005	0.01
     2	99.758	0.005	0.01
     3	99.7909	0.005	0.01
     4	99.8116	0.005	0.01
     5	99.8464	0.005	0.01
     6	99.8748	0.005	0.01
     7	99.8985	0.005	0.01
     8	99.9249	0.005	0.01
     9	99.9517	0.005	0.01
    10	99.9771	0.005	0.01
    11	100.004	0.005	0.01
    12	100.03	0.005	0.01
    13	100.057	0.005	0.01
    14	100.078	0.005	0.01
    15	100.106	0.005	0.01
    16	100.129	0.005	0.01
    17	100.153	0.005	0.01
    18	100.179	0.005	0.01
    19	100.202	0.005	0.01
    20	100.227	0.005	0.01
    21	100.252	0.005	0.01
    22	100.275	0.005	0.01
    23	100.298	0.005	0.01
    24	100.319	0.005	0.01
    25	100.345	0.005	0.01
    26	100.369	0.005	0.01

Measurement: vout_ripple
  step	vout_max - vout_min
     1	1.683
     2	1.66489
     3	1.64703
     4	1.64287
     5	1.62564
     6	1.60974
     7	1.60073
     8	1.59315
     9	1.57988
    10	1.5719
    11	1.55982
    12	1.5487
    13	1.53799
    14	1.53351
    15	1.52116
    16	1.51602
    17	1.50999
    18	1.49809
    19	1.49332
    20	1.48495
    21	1.47652
    22	1.46678
    23	1.464
    24	1.46185
    25	1.45284
    26	1.44581


Date: Mon Nov  4 18:49:23 2024
Total elapsed time: 73.485 seconds.

tnom = 27
temp = 85
method = Gear
totiter = 853895
traniter = 853885
tranpoints = 360315
accept = 263289
rejected = 97026
matrix size = 11
fillins = 1
solver = Normal
Avg thread counts: 1.0/1.0/1.0/1.0
Matrix Compiler1:      29 opcodes  0.3/0.2/[0.2]
Matrix Compiler2: off  [0.2]/0.3/0.3

