Circuit: * C:\Users\Daniel Hoefer\Documents\Toyota Satoshi Emblem\GitHub\FIC Board\FIC Board\LTSpice\Draft4.asc

Direct Newton iteration for .op point succeeded.

Date: Mon Nov  4 11:16:53 2024
Total elapsed time: 1.681 seconds.

tnom = 27
temp = 27
method = Gear
totiter = 612535
traniter = 612523
tranpoints = 259405
accept = 230925
rejected = 28480
matrix size = 19
fillins = 3
solver = Normal
Avg thread counts: 1.0/1.0/1.0/1.0
Matrix Compiler1: 1.27 KB object code size  1.1/1.3/[0.4]
Matrix Compiler2: 1.57 KB object code size  0.7/2.0/[0.6]

